ln: failed to create symbolic link ‘ww3_ounf.inp’: File exists

                  *** WAVEWATCH III Field output postp. ***   
               ===============================================

  Grid name : GRADE GLOBAL 2X2              

  Fields in file : 
 --------------------------
      Wave height         
      Mean wave length    
      Mean wave period(+2)
      Peak frequency      
      Mean wave dir. a1b1 
  Comment character is '$'

            Fields   : Wave height         
                       Mean wave period(+2)
                       Peak frequency      
                       Mean wave dir. a1b1 

  Output time data : 
 --------------------------------------------------
      First time         : 2018/09/01 00:00:00 UTC
      Interval           :            03:00:00    
      Number of requests :       9999
      Wave height            
      Mean wave period(+2)   
      Peak frequency         
      Mean wave dir. a1b1    
      X range :       1    181
      Y range :       1     81

  Generating files 
 --------------------------------------------------
      Files for 2018/09/01 00:00:00 UTC
NEW NETCDF FILE WAS CREATED ww3.201809_hs.nc                                  
Writing new record hs       number      1 for 2018:09:01T00:00:00 in file ww3.201809_hs.nc
NEW NETCDF FILE WAS CREATED ww3.201809_t02.nc                                 
Writing new record t02      number      1 for 2018:09:01T00:00:00 in file ww3.201809_t02.nc
NEW NETCDF FILE WAS CREATED ww3.201809_fp.nc                                  
Writing new record fp       number      1 for 2018:09:01T00:00:00 in file ww3.201809_fp.nc
NEW NETCDF FILE WAS CREATED ww3.201809_dir.nc                                 
Writing new record dir      number      1 for 2018:09:01T00:00:00 in file ww3.201809_dir.nc
      Files for 2018/09/01 03:00:00 UTC
Writing new record hs       number      2 for 2018:09:01T03:00:00 in file ww3.201809_hs.nc
Writing new record t02      number      2 for 2018:09:01T03:00:00 in file ww3.201809_t02.nc
Writing new record fp       number      2 for 2018:09:01T03:00:00 in file ww3.201809_fp.nc
Writing new record dir      number      2 for 2018:09:01T03:00:00 in file ww3.201809_dir.nc
      Files for 2018/09/01 06:00:00 UTC
Writing new record hs       number      3 for 2018:09:01T06:00:00 in file ww3.201809_hs.nc
Writing new record t02      number      3 for 2018:09:01T06:00:00 in file ww3.201809_t02.nc
Writing new record fp       number      3 for 2018:09:01T06:00:00 in file ww3.201809_fp.nc
Writing new record dir      number      3 for 2018:09:01T06:00:00 in file ww3.201809_dir.nc
      Files for 2018/09/01 09:00:00 UTC
Writing new record hs       number      4 for 2018:09:01T09:00:00 in file ww3.201809_hs.nc
Writing new record t02      number      4 for 2018:09:01T09:00:00 in file ww3.201809_t02.nc
Writing new record fp       number      4 for 2018:09:01T09:00:00 in file ww3.201809_fp.nc
Writing new record dir      number      4 for 2018:09:01T09:00:00 in file ww3.201809_dir.nc
      Files for 2018/09/01 12:00:00 UTC
Writing new record hs       number      5 for 2018:09:01T12:00:00 in file ww3.201809_hs.nc
Writing new record t02      number      5 for 2018:09:01T12:00:00 in file ww3.201809_t02.nc
Writing new record fp       number      5 for 2018:09:01T12:00:00 in file ww3.201809_fp.nc
Writing new record dir      number      5 for 2018:09:01T12:00:00 in file ww3.201809_dir.nc
      Files for 2018/09/01 15:00:00 UTC
Writing new record hs       number      6 for 2018:09:01T15:00:00 in file ww3.201809_hs.nc
Writing new record t02      number      6 for 2018:09:01T15:00:00 in file ww3.201809_t02.nc
Writing new record fp       number      6 for 2018:09:01T15:00:00 in file ww3.201809_fp.nc
Writing new record dir      number      6 for 2018:09:01T15:00:00 in file ww3.201809_dir.nc
      Files for 2018/09/01 18:00:00 UTC
Writing new record hs       number      7 for 2018:09:01T18:00:00 in file ww3.201809_hs.nc
Writing new record t02      number      7 for 2018:09:01T18:00:00 in file ww3.201809_t02.nc
Writing new record fp       number      7 for 2018:09:01T18:00:00 in file ww3.201809_fp.nc
Writing new record dir      number      7 for 2018:09:01T18:00:00 in file ww3.201809_dir.nc
      Files for 2018/09/01 21:00:00 UTC
Writing new record hs       number      8 for 2018:09:01T21:00:00 in file ww3.201809_hs.nc
Writing new record t02      number      8 for 2018:09:01T21:00:00 in file ww3.201809_t02.nc
Writing new record fp       number      8 for 2018:09:01T21:00:00 in file ww3.201809_fp.nc
Writing new record dir      number      8 for 2018:09:01T21:00:00 in file ww3.201809_dir.nc
      Files for 2018/09/02 00:00:00 UTC
Writing new record hs       number      9 for 2018:09:02T00:00:00 in file ww3.201809_hs.nc
Writing new record t02      number      9 for 2018:09:02T00:00:00 in file ww3.201809_t02.nc
Writing new record fp       number      9 for 2018:09:02T00:00:00 in file ww3.201809_fp.nc
Writing new record dir      number      9 for 2018:09:02T00:00:00 in file ww3.201809_dir.nc
      Files for 2018/09/02 03:00:00 UTC
Writing new record hs       number     10 for 2018:09:02T03:00:00 in file ww3.201809_hs.nc
Writing new record t02      number     10 for 2018:09:02T03:00:00 in file ww3.201809_t02.nc
Writing new record fp       number     10 for 2018:09:02T03:00:00 in file ww3.201809_fp.nc
Writing new record dir      number     10 for 2018:09:02T03:00:00 in file ww3.201809_dir.nc
      Files for 2018/09/02 06:00:00 UTC
Writing new record hs       number     11 for 2018:09:02T06:00:00 in file ww3.201809_hs.nc
Writing new record t02      number     11 for 2018:09:02T06:00:00 in file ww3.201809_t02.nc
Writing new record fp       number     11 for 2018:09:02T06:00:00 in file ww3.201809_fp.nc
Writing new record dir      number     11 for 2018:09:02T06:00:00 in file ww3.201809_dir.nc
      Files for 2018/09/02 09:00:00 UTC
Writing new record hs       number     12 for 2018:09:02T09:00:00 in file ww3.201809_hs.nc
Writing new record t02      number     12 for 2018:09:02T09:00:00 in file ww3.201809_t02.nc
Writing new record fp       number     12 for 2018:09:02T09:00:00 in file ww3.201809_fp.nc
Writing new record dir      number     12 for 2018:09:02T09:00:00 in file ww3.201809_dir.nc
      Files for 2018/09/02 12:00:00 UTC
Writing new record hs       number     13 for 2018:09:02T12:00:00 in file ww3.201809_hs.nc
Writing new record t02      number     13 for 2018:09:02T12:00:00 in file ww3.201809_t02.nc
Writing new record fp       number     13 for 2018:09:02T12:00:00 in file ww3.201809_fp.nc
Writing new record dir      number     13 for 2018:09:02T12:00:00 in file ww3.201809_dir.nc
      Files for 2018/09/02 15:00:00 UTC
Writing new record hs       number     14 for 2018:09:02T15:00:00 in file ww3.201809_hs.nc
Writing new record t02      number     14 for 2018:09:02T15:00:00 in file ww3.201809_t02.nc
Writing new record fp       number     14 for 2018:09:02T15:00:00 in file ww3.201809_fp.nc
Writing new record dir      number     14 for 2018:09:02T15:00:00 in file ww3.201809_dir.nc
      Files for 2018/09/02 18:00:00 UTC
Writing new record hs       number     15 for 2018:09:02T18:00:00 in file ww3.201809_hs.nc
Writing new record t02      number     15 for 2018:09:02T18:00:00 in file ww3.201809_t02.nc
Writing new record fp       number     15 for 2018:09:02T18:00:00 in file ww3.201809_fp.nc
Writing new record dir      number     15 for 2018:09:02T18:00:00 in file ww3.201809_dir.nc
      Files for 2018/09/02 21:00:00 UTC
Writing new record hs       number     16 for 2018:09:02T21:00:00 in file ww3.201809_hs.nc
Writing new record t02      number     16 for 2018:09:02T21:00:00 in file ww3.201809_t02.nc
Writing new record fp       number     16 for 2018:09:02T21:00:00 in file ww3.201809_fp.nc
Writing new record dir      number     16 for 2018:09:02T21:00:00 in file ww3.201809_dir.nc
      Files for 2018/09/03 00:00:00 UTC
Writing new record hs       number     17 for 2018:09:03T00:00:00 in file ww3.201809_hs.nc
Writing new record t02      number     17 for 2018:09:03T00:00:00 in file ww3.201809_t02.nc
Writing new record fp       number     17 for 2018:09:03T00:00:00 in file ww3.201809_fp.nc
Writing new record dir      number     17 for 2018:09:03T00:00:00 in file ww3.201809_dir.nc
      Files for 2018/09/03 03:00:00 UTC
Writing new record hs       number     18 for 2018:09:03T03:00:00 in file ww3.201809_hs.nc
Writing new record t02      number     18 for 2018:09:03T03:00:00 in file ww3.201809_t02.nc
Writing new record fp       number     18 for 2018:09:03T03:00:00 in file ww3.201809_fp.nc
Writing new record dir      number     18 for 2018:09:03T03:00:00 in file ww3.201809_dir.nc
      Files for 2018/09/03 06:00:00 UTC
Writing new record hs       number     19 for 2018:09:03T06:00:00 in file ww3.201809_hs.nc
Writing new record t02      number     19 for 2018:09:03T06:00:00 in file ww3.201809_t02.nc
Writing new record fp       number     19 for 2018:09:03T06:00:00 in file ww3.201809_fp.nc
Writing new record dir      number     19 for 2018:09:03T06:00:00 in file ww3.201809_dir.nc
      Files for 2018/09/03 09:00:00 UTC
Writing new record hs       number     20 for 2018:09:03T09:00:00 in file ww3.201809_hs.nc
Writing new record t02      number     20 for 2018:09:03T09:00:00 in file ww3.201809_t02.nc
Writing new record fp       number     20 for 2018:09:03T09:00:00 in file ww3.201809_fp.nc
Writing new record dir      number     20 for 2018:09:03T09:00:00 in file ww3.201809_dir.nc
      Files for 2018/09/03 12:00:00 UTC
Writing new record hs       number     21 for 2018:09:03T12:00:00 in file ww3.201809_hs.nc
Writing new record t02      number     21 for 2018:09:03T12:00:00 in file ww3.201809_t02.nc
Writing new record fp       number     21 for 2018:09:03T12:00:00 in file ww3.201809_fp.nc
Writing new record dir      number     21 for 2018:09:03T12:00:00 in file ww3.201809_dir.nc
      Files for 2018/09/03 15:00:00 UTC
Writing new record hs       number     22 for 2018:09:03T15:00:00 in file ww3.201809_hs.nc
Writing new record t02      number     22 for 2018:09:03T15:00:00 in file ww3.201809_t02.nc
Writing new record fp       number     22 for 2018:09:03T15:00:00 in file ww3.201809_fp.nc
Writing new record dir      number     22 for 2018:09:03T15:00:00 in file ww3.201809_dir.nc
      Files for 2018/09/03 18:00:00 UTC
Writing new record hs       number     23 for 2018:09:03T18:00:00 in file ww3.201809_hs.nc
Writing new record t02      number     23 for 2018:09:03T18:00:00 in file ww3.201809_t02.nc
Writing new record fp       number     23 for 2018:09:03T18:00:00 in file ww3.201809_fp.nc
Writing new record dir      number     23 for 2018:09:03T18:00:00 in file ww3.201809_dir.nc
      Files for 2018/09/03 21:00:00 UTC
Writing new record hs       number     24 for 2018:09:03T21:00:00 in file ww3.201809_hs.nc
Writing new record t02      number     24 for 2018:09:03T21:00:00 in file ww3.201809_t02.nc
Writing new record fp       number     24 for 2018:09:03T21:00:00 in file ww3.201809_fp.nc
Writing new record dir      number     24 for 2018:09:03T21:00:00 in file ww3.201809_dir.nc
      Files for 2018/09/04 00:00:00 UTC
Writing new record hs       number     25 for 2018:09:04T00:00:00 in file ww3.201809_hs.nc
Writing new record t02      number     25 for 2018:09:04T00:00:00 in file ww3.201809_t02.nc
Writing new record fp       number     25 for 2018:09:04T00:00:00 in file ww3.201809_fp.nc
Writing new record dir      number     25 for 2018:09:04T00:00:00 in file ww3.201809_dir.nc
      Files for 2018/09/04 03:00:00 UTC
Writing new record hs       number     26 for 2018:09:04T03:00:00 in file ww3.201809_hs.nc
Writing new record t02      number     26 for 2018:09:04T03:00:00 in file ww3.201809_t02.nc
Writing new record fp       number     26 for 2018:09:04T03:00:00 in file ww3.201809_fp.nc
Writing new record dir      number     26 for 2018:09:04T03:00:00 in file ww3.201809_dir.nc
      Files for 2018/09/04 06:00:00 UTC
Writing new record hs       number     27 for 2018:09:04T06:00:00 in file ww3.201809_hs.nc
Writing new record t02      number     27 for 2018:09:04T06:00:00 in file ww3.201809_t02.nc
Writing new record fp       number     27 for 2018:09:04T06:00:00 in file ww3.201809_fp.nc
Writing new record dir      number     27 for 2018:09:04T06:00:00 in file ww3.201809_dir.nc
      Files for 2018/09/04 09:00:00 UTC
Writing new record hs       number     28 for 2018:09:04T09:00:00 in file ww3.201809_hs.nc
Writing new record t02      number     28 for 2018:09:04T09:00:00 in file ww3.201809_t02.nc
Writing new record fp       number     28 for 2018:09:04T09:00:00 in file ww3.201809_fp.nc
Writing new record dir      number     28 for 2018:09:04T09:00:00 in file ww3.201809_dir.nc
      Files for 2018/09/04 12:00:00 UTC
Writing new record hs       number     29 for 2018:09:04T12:00:00 in file ww3.201809_hs.nc
Writing new record t02      number     29 for 2018:09:04T12:00:00 in file ww3.201809_t02.nc
Writing new record fp       number     29 for 2018:09:04T12:00:00 in file ww3.201809_fp.nc
Writing new record dir      number     29 for 2018:09:04T12:00:00 in file ww3.201809_dir.nc
      Files for 2018/09/04 15:00:00 UTC
Writing new record hs       number     30 for 2018:09:04T15:00:00 in file ww3.201809_hs.nc
Writing new record t02      number     30 for 2018:09:04T15:00:00 in file ww3.201809_t02.nc
Writing new record fp       number     30 for 2018:09:04T15:00:00 in file ww3.201809_fp.nc
Writing new record dir      number     30 for 2018:09:04T15:00:00 in file ww3.201809_dir.nc
      Files for 2018/09/04 18:00:00 UTC
Writing new record hs       number     31 for 2018:09:04T18:00:00 in file ww3.201809_hs.nc
Writing new record t02      number     31 for 2018:09:04T18:00:00 in file ww3.201809_t02.nc
Writing new record fp       number     31 for 2018:09:04T18:00:00 in file ww3.201809_fp.nc
Writing new record dir      number     31 for 2018:09:04T18:00:00 in file ww3.201809_dir.nc
      Files for 2018/09/04 21:00:00 UTC
Writing new record hs       number     32 for 2018:09:04T21:00:00 in file ww3.201809_hs.nc
Writing new record t02      number     32 for 2018:09:04T21:00:00 in file ww3.201809_t02.nc
Writing new record fp       number     32 for 2018:09:04T21:00:00 in file ww3.201809_fp.nc
Writing new record dir      number     32 for 2018:09:04T21:00:00 in file ww3.201809_dir.nc
      Files for 2018/09/05 00:00:00 UTC
Writing new record hs       number     33 for 2018:09:05T00:00:00 in file ww3.201809_hs.nc
Writing new record t02      number     33 for 2018:09:05T00:00:00 in file ww3.201809_t02.nc
Writing new record fp       number     33 for 2018:09:05T00:00:00 in file ww3.201809_fp.nc
Writing new record dir      number     33 for 2018:09:05T00:00:00 in file ww3.201809_dir.nc
      Files for 2018/09/05 03:00:00 UTC
Writing new record hs       number     34 for 2018:09:05T03:00:00 in file ww3.201809_hs.nc
Writing new record t02      number     34 for 2018:09:05T03:00:00 in file ww3.201809_t02.nc
Writing new record fp       number     34 for 2018:09:05T03:00:00 in file ww3.201809_fp.nc
Writing new record dir      number     34 for 2018:09:05T03:00:00 in file ww3.201809_dir.nc
      Files for 2018/09/05 06:00:00 UTC
Writing new record hs       number     35 for 2018:09:05T06:00:00 in file ww3.201809_hs.nc
Writing new record t02      number     35 for 2018:09:05T06:00:00 in file ww3.201809_t02.nc
Writing new record fp       number     35 for 2018:09:05T06:00:00 in file ww3.201809_fp.nc
Writing new record dir      number     35 for 2018:09:05T06:00:00 in file ww3.201809_dir.nc
      Files for 2018/09/05 09:00:00 UTC
Writing new record hs       number     36 for 2018:09:05T09:00:00 in file ww3.201809_hs.nc
Writing new record t02      number     36 for 2018:09:05T09:00:00 in file ww3.201809_t02.nc
Writing new record fp       number     36 for 2018:09:05T09:00:00 in file ww3.201809_fp.nc
Writing new record dir      number     36 for 2018:09:05T09:00:00 in file ww3.201809_dir.nc
      Files for 2018/09/05 12:00:00 UTC
Writing new record hs       number     37 for 2018:09:05T12:00:00 in file ww3.201809_hs.nc
Writing new record t02      number     37 for 2018:09:05T12:00:00 in file ww3.201809_t02.nc
Writing new record fp       number     37 for 2018:09:05T12:00:00 in file ww3.201809_fp.nc
Writing new record dir      number     37 for 2018:09:05T12:00:00 in file ww3.201809_dir.nc
      Files for 2018/09/05 15:00:00 UTC
Writing new record hs       number     38 for 2018:09:05T15:00:00 in file ww3.201809_hs.nc
Writing new record t02      number     38 for 2018:09:05T15:00:00 in file ww3.201809_t02.nc
Writing new record fp       number     38 for 2018:09:05T15:00:00 in file ww3.201809_fp.nc
Writing new record dir      number     38 for 2018:09:05T15:00:00 in file ww3.201809_dir.nc
      Files for 2018/09/05 18:00:00 UTC
Writing new record hs       number     39 for 2018:09:05T18:00:00 in file ww3.201809_hs.nc
Writing new record t02      number     39 for 2018:09:05T18:00:00 in file ww3.201809_t02.nc
Writing new record fp       number     39 for 2018:09:05T18:00:00 in file ww3.201809_fp.nc
Writing new record dir      number     39 for 2018:09:05T18:00:00 in file ww3.201809_dir.nc
      Files for 2018/09/05 21:00:00 UTC
Writing new record hs       number     40 for 2018:09:05T21:00:00 in file ww3.201809_hs.nc
Writing new record t02      number     40 for 2018:09:05T21:00:00 in file ww3.201809_t02.nc
Writing new record fp       number     40 for 2018:09:05T21:00:00 in file ww3.201809_fp.nc
Writing new record dir      number     40 for 2018:09:05T21:00:00 in file ww3.201809_dir.nc
      Files for 2018/09/06 00:00:00 UTC
Writing new record hs       number     41 for 2018:09:06T00:00:00 in file ww3.201809_hs.nc
Writing new record t02      number     41 for 2018:09:06T00:00:00 in file ww3.201809_t02.nc
Writing new record fp       number     41 for 2018:09:06T00:00:00 in file ww3.201809_fp.nc
Writing new record dir      number     41 for 2018:09:06T00:00:00 in file ww3.201809_dir.nc
      Files for 2018/09/06 03:00:00 UTC
Writing new record hs       number     42 for 2018:09:06T03:00:00 in file ww3.201809_hs.nc
Writing new record t02      number     42 for 2018:09:06T03:00:00 in file ww3.201809_t02.nc
Writing new record fp       number     42 for 2018:09:06T03:00:00 in file ww3.201809_fp.nc
Writing new record dir      number     42 for 2018:09:06T03:00:00 in file ww3.201809_dir.nc
      Files for 2018/09/06 06:00:00 UTC
Writing new record hs       number     43 for 2018:09:06T06:00:00 in file ww3.201809_hs.nc
Writing new record t02      number     43 for 2018:09:06T06:00:00 in file ww3.201809_t02.nc
Writing new record fp       number     43 for 2018:09:06T06:00:00 in file ww3.201809_fp.nc
Writing new record dir      number     43 for 2018:09:06T06:00:00 in file ww3.201809_dir.nc
      Files for 2018/09/06 09:00:00 UTC
Writing new record hs       number     44 for 2018:09:06T09:00:00 in file ww3.201809_hs.nc
Writing new record t02      number     44 for 2018:09:06T09:00:00 in file ww3.201809_t02.nc
Writing new record fp       number     44 for 2018:09:06T09:00:00 in file ww3.201809_fp.nc
Writing new record dir      number     44 for 2018:09:06T09:00:00 in file ww3.201809_dir.nc
      Files for 2018/09/06 12:00:00 UTC
Writing new record hs       number     45 for 2018:09:06T12:00:00 in file ww3.201809_hs.nc
Writing new record t02      number     45 for 2018:09:06T12:00:00 in file ww3.201809_t02.nc
Writing new record fp       number     45 for 2018:09:06T12:00:00 in file ww3.201809_fp.nc
Writing new record dir      number     45 for 2018:09:06T12:00:00 in file ww3.201809_dir.nc
      Files for 2018/09/06 15:00:00 UTC
Writing new record hs       number     46 for 2018:09:06T15:00:00 in file ww3.201809_hs.nc
Writing new record t02      number     46 for 2018:09:06T15:00:00 in file ww3.201809_t02.nc
Writing new record fp       number     46 for 2018:09:06T15:00:00 in file ww3.201809_fp.nc
Writing new record dir      number     46 for 2018:09:06T15:00:00 in file ww3.201809_dir.nc
      Files for 2018/09/06 18:00:00 UTC
Writing new record hs       number     47 for 2018:09:06T18:00:00 in file ww3.201809_hs.nc
Writing new record t02      number     47 for 2018:09:06T18:00:00 in file ww3.201809_t02.nc
Writing new record fp       number     47 for 2018:09:06T18:00:00 in file ww3.201809_fp.nc
Writing new record dir      number     47 for 2018:09:06T18:00:00 in file ww3.201809_dir.nc
      Files for 2018/09/06 21:00:00 UTC
Writing new record hs       number     48 for 2018:09:06T21:00:00 in file ww3.201809_hs.nc
Writing new record t02      number     48 for 2018:09:06T21:00:00 in file ww3.201809_t02.nc
Writing new record fp       number     48 for 2018:09:06T21:00:00 in file ww3.201809_fp.nc
Writing new record dir      number     48 for 2018:09:06T21:00:00 in file ww3.201809_dir.nc
      Files for 2018/09/07 00:00:00 UTC
Writing new record hs       number     49 for 2018:09:07T00:00:00 in file ww3.201809_hs.nc
Writing new record t02      number     49 for 2018:09:07T00:00:00 in file ww3.201809_t02.nc
Writing new record fp       number     49 for 2018:09:07T00:00:00 in file ww3.201809_fp.nc
Writing new record dir      number     49 for 2018:09:07T00:00:00 in file ww3.201809_dir.nc
      Files for 2018/09/07 03:00:00 UTC
Writing new record hs       number     50 for 2018:09:07T03:00:00 in file ww3.201809_hs.nc
Writing new record t02      number     50 for 2018:09:07T03:00:00 in file ww3.201809_t02.nc
Writing new record fp       number     50 for 2018:09:07T03:00:00 in file ww3.201809_fp.nc
Writing new record dir      number     50 for 2018:09:07T03:00:00 in file ww3.201809_dir.nc
      Files for 2018/09/07 06:00:00 UTC
Writing new record hs       number     51 for 2018:09:07T06:00:00 in file ww3.201809_hs.nc
Writing new record t02      number     51 for 2018:09:07T06:00:00 in file ww3.201809_t02.nc
Writing new record fp       number     51 for 2018:09:07T06:00:00 in file ww3.201809_fp.nc
Writing new record dir      number     51 for 2018:09:07T06:00:00 in file ww3.201809_dir.nc
      Files for 2018/09/07 09:00:00 UTC
Writing new record hs       number     52 for 2018:09:07T09:00:00 in file ww3.201809_hs.nc
Writing new record t02      number     52 for 2018:09:07T09:00:00 in file ww3.201809_t02.nc
Writing new record fp       number     52 for 2018:09:07T09:00:00 in file ww3.201809_fp.nc
Writing new record dir      number     52 for 2018:09:07T09:00:00 in file ww3.201809_dir.nc
      Files for 2018/09/07 12:00:00 UTC
Writing new record hs       number     53 for 2018:09:07T12:00:00 in file ww3.201809_hs.nc
Writing new record t02      number     53 for 2018:09:07T12:00:00 in file ww3.201809_t02.nc
Writing new record fp       number     53 for 2018:09:07T12:00:00 in file ww3.201809_fp.nc
Writing new record dir      number     53 for 2018:09:07T12:00:00 in file ww3.201809_dir.nc
      Files for 2018/09/07 15:00:00 UTC
Writing new record hs       number     54 for 2018:09:07T15:00:00 in file ww3.201809_hs.nc
Writing new record t02      number     54 for 2018:09:07T15:00:00 in file ww3.201809_t02.nc
Writing new record fp       number     54 for 2018:09:07T15:00:00 in file ww3.201809_fp.nc
Writing new record dir      number     54 for 2018:09:07T15:00:00 in file ww3.201809_dir.nc
      Files for 2018/09/07 18:00:00 UTC
Writing new record hs       number     55 for 2018:09:07T18:00:00 in file ww3.201809_hs.nc
Writing new record t02      number     55 for 2018:09:07T18:00:00 in file ww3.201809_t02.nc
Writing new record fp       number     55 for 2018:09:07T18:00:00 in file ww3.201809_fp.nc
Writing new record dir      number     55 for 2018:09:07T18:00:00 in file ww3.201809_dir.nc
      Files for 2018/09/07 21:00:00 UTC
Writing new record hs       number     56 for 2018:09:07T21:00:00 in file ww3.201809_hs.nc
Writing new record t02      number     56 for 2018:09:07T21:00:00 in file ww3.201809_t02.nc
Writing new record fp       number     56 for 2018:09:07T21:00:00 in file ww3.201809_fp.nc
Writing new record dir      number     56 for 2018:09:07T21:00:00 in file ww3.201809_dir.nc
      Files for 2018/09/08 00:00:00 UTC
Writing new record hs       number     57 for 2018:09:08T00:00:00 in file ww3.201809_hs.nc
Writing new record t02      number     57 for 2018:09:08T00:00:00 in file ww3.201809_t02.nc
Writing new record fp       number     57 for 2018:09:08T00:00:00 in file ww3.201809_fp.nc
Writing new record dir      number     57 for 2018:09:08T00:00:00 in file ww3.201809_dir.nc
      Files for 2018/09/08 03:00:00 UTC
Writing new record hs       number     58 for 2018:09:08T03:00:00 in file ww3.201809_hs.nc
Writing new record t02      number     58 for 2018:09:08T03:00:00 in file ww3.201809_t02.nc
Writing new record fp       number     58 for 2018:09:08T03:00:00 in file ww3.201809_fp.nc
Writing new record dir      number     58 for 2018:09:08T03:00:00 in file ww3.201809_dir.nc
      Files for 2018/09/08 06:00:00 UTC
Writing new record hs       number     59 for 2018:09:08T06:00:00 in file ww3.201809_hs.nc
Writing new record t02      number     59 for 2018:09:08T06:00:00 in file ww3.201809_t02.nc
Writing new record fp       number     59 for 2018:09:08T06:00:00 in file ww3.201809_fp.nc
Writing new record dir      number     59 for 2018:09:08T06:00:00 in file ww3.201809_dir.nc
      Files for 2018/09/08 09:00:00 UTC
Writing new record hs       number     60 for 2018:09:08T09:00:00 in file ww3.201809_hs.nc
Writing new record t02      number     60 for 2018:09:08T09:00:00 in file ww3.201809_t02.nc
Writing new record fp       number     60 for 2018:09:08T09:00:00 in file ww3.201809_fp.nc
Writing new record dir      number     60 for 2018:09:08T09:00:00 in file ww3.201809_dir.nc
      Files for 2018/09/08 12:00:00 UTC
Writing new record hs       number     61 for 2018:09:08T12:00:00 in file ww3.201809_hs.nc
Writing new record t02      number     61 for 2018:09:08T12:00:00 in file ww3.201809_t02.nc
Writing new record fp       number     61 for 2018:09:08T12:00:00 in file ww3.201809_fp.nc
Writing new record dir      number     61 for 2018:09:08T12:00:00 in file ww3.201809_dir.nc
      Files for 2018/09/08 15:00:00 UTC
Writing new record hs       number     62 for 2018:09:08T15:00:00 in file ww3.201809_hs.nc
Writing new record t02      number     62 for 2018:09:08T15:00:00 in file ww3.201809_t02.nc
Writing new record fp       number     62 for 2018:09:08T15:00:00 in file ww3.201809_fp.nc
Writing new record dir      number     62 for 2018:09:08T15:00:00 in file ww3.201809_dir.nc
      Files for 2018/09/08 18:00:00 UTC
Writing new record hs       number     63 for 2018:09:08T18:00:00 in file ww3.201809_hs.nc
Writing new record t02      number     63 for 2018:09:08T18:00:00 in file ww3.201809_t02.nc
Writing new record fp       number     63 for 2018:09:08T18:00:00 in file ww3.201809_fp.nc
Writing new record dir      number     63 for 2018:09:08T18:00:00 in file ww3.201809_dir.nc
      Files for 2018/09/08 21:00:00 UTC
Writing new record hs       number     64 for 2018:09:08T21:00:00 in file ww3.201809_hs.nc
Writing new record t02      number     64 for 2018:09:08T21:00:00 in file ww3.201809_t02.nc
Writing new record fp       number     64 for 2018:09:08T21:00:00 in file ww3.201809_fp.nc
Writing new record dir      number     64 for 2018:09:08T21:00:00 in file ww3.201809_dir.nc
      Files for 2018/09/09 00:00:00 UTC
Writing new record hs       number     65 for 2018:09:09T00:00:00 in file ww3.201809_hs.nc
Writing new record t02      number     65 for 2018:09:09T00:00:00 in file ww3.201809_t02.nc
Writing new record fp       number     65 for 2018:09:09T00:00:00 in file ww3.201809_fp.nc
Writing new record dir      number     65 for 2018:09:09T00:00:00 in file ww3.201809_dir.nc
      Files for 2018/09/09 03:00:00 UTC
Writing new record hs       number     66 for 2018:09:09T03:00:00 in file ww3.201809_hs.nc
Writing new record t02      number     66 for 2018:09:09T03:00:00 in file ww3.201809_t02.nc
Writing new record fp       number     66 for 2018:09:09T03:00:00 in file ww3.201809_fp.nc
Writing new record dir      number     66 for 2018:09:09T03:00:00 in file ww3.201809_dir.nc
      Files for 2018/09/09 06:00:00 UTC
Writing new record hs       number     67 for 2018:09:09T06:00:00 in file ww3.201809_hs.nc
Writing new record t02      number     67 for 2018:09:09T06:00:00 in file ww3.201809_t02.nc
Writing new record fp       number     67 for 2018:09:09T06:00:00 in file ww3.201809_fp.nc
Writing new record dir      number     67 for 2018:09:09T06:00:00 in file ww3.201809_dir.nc
      Files for 2018/09/09 09:00:00 UTC
Writing new record hs       number     68 for 2018:09:09T09:00:00 in file ww3.201809_hs.nc
Writing new record t02      number     68 for 2018:09:09T09:00:00 in file ww3.201809_t02.nc
Writing new record fp       number     68 for 2018:09:09T09:00:00 in file ww3.201809_fp.nc
Writing new record dir      number     68 for 2018:09:09T09:00:00 in file ww3.201809_dir.nc
      Files for 2018/09/09 12:00:00 UTC
Writing new record hs       number     69 for 2018:09:09T12:00:00 in file ww3.201809_hs.nc
Writing new record t02      number     69 for 2018:09:09T12:00:00 in file ww3.201809_t02.nc
Writing new record fp       number     69 for 2018:09:09T12:00:00 in file ww3.201809_fp.nc
Writing new record dir      number     69 for 2018:09:09T12:00:00 in file ww3.201809_dir.nc
      Files for 2018/09/09 15:00:00 UTC
Writing new record hs       number     70 for 2018:09:09T15:00:00 in file ww3.201809_hs.nc
Writing new record t02      number     70 for 2018:09:09T15:00:00 in file ww3.201809_t02.nc
Writing new record fp       number     70 for 2018:09:09T15:00:00 in file ww3.201809_fp.nc
Writing new record dir      number     70 for 2018:09:09T15:00:00 in file ww3.201809_dir.nc
      Files for 2018/09/09 18:00:00 UTC
Writing new record hs       number     71 for 2018:09:09T18:00:00 in file ww3.201809_hs.nc
Writing new record t02      number     71 for 2018:09:09T18:00:00 in file ww3.201809_t02.nc
Writing new record fp       number     71 for 2018:09:09T18:00:00 in file ww3.201809_fp.nc
Writing new record dir      number     71 for 2018:09:09T18:00:00 in file ww3.201809_dir.nc
      Files for 2018/09/09 21:00:00 UTC
Writing new record hs       number     72 for 2018:09:09T21:00:00 in file ww3.201809_hs.nc
Writing new record t02      number     72 for 2018:09:09T21:00:00 in file ww3.201809_t02.nc
Writing new record fp       number     72 for 2018:09:09T21:00:00 in file ww3.201809_fp.nc
Writing new record dir      number     72 for 2018:09:09T21:00:00 in file ww3.201809_dir.nc
      Files for 2018/09/10 00:00:00 UTC
Writing new record hs       number     73 for 2018:09:10T00:00:00 in file ww3.201809_hs.nc
Writing new record t02      number     73 for 2018:09:10T00:00:00 in file ww3.201809_t02.nc
Writing new record fp       number     73 for 2018:09:10T00:00:00 in file ww3.201809_fp.nc
Writing new record dir      number     73 for 2018:09:10T00:00:00 in file ww3.201809_dir.nc
      Files for 2018/09/10 03:00:00 UTC
Writing new record hs       number     74 for 2018:09:10T03:00:00 in file ww3.201809_hs.nc
Writing new record t02      number     74 for 2018:09:10T03:00:00 in file ww3.201809_t02.nc
Writing new record fp       number     74 for 2018:09:10T03:00:00 in file ww3.201809_fp.nc
Writing new record dir      number     74 for 2018:09:10T03:00:00 in file ww3.201809_dir.nc
      Files for 2018/09/10 06:00:00 UTC
Writing new record hs       number     75 for 2018:09:10T06:00:00 in file ww3.201809_hs.nc
Writing new record t02      number     75 for 2018:09:10T06:00:00 in file ww3.201809_t02.nc
Writing new record fp       number     75 for 2018:09:10T06:00:00 in file ww3.201809_fp.nc
Writing new record dir      number     75 for 2018:09:10T06:00:00 in file ww3.201809_dir.nc
      Files for 2018/09/10 09:00:00 UTC
Writing new record hs       number     76 for 2018:09:10T09:00:00 in file ww3.201809_hs.nc
Writing new record t02      number     76 for 2018:09:10T09:00:00 in file ww3.201809_t02.nc
Writing new record fp       number     76 for 2018:09:10T09:00:00 in file ww3.201809_fp.nc
Writing new record dir      number     76 for 2018:09:10T09:00:00 in file ww3.201809_dir.nc
      Files for 2018/09/10 12:00:00 UTC
Writing new record hs       number     77 for 2018:09:10T12:00:00 in file ww3.201809_hs.nc
Writing new record t02      number     77 for 2018:09:10T12:00:00 in file ww3.201809_t02.nc
Writing new record fp       number     77 for 2018:09:10T12:00:00 in file ww3.201809_fp.nc
Writing new record dir      number     77 for 2018:09:10T12:00:00 in file ww3.201809_dir.nc
      Files for 2018/09/10 15:00:00 UTC
Writing new record hs       number     78 for 2018:09:10T15:00:00 in file ww3.201809_hs.nc
Writing new record t02      number     78 for 2018:09:10T15:00:00 in file ww3.201809_t02.nc
Writing new record fp       number     78 for 2018:09:10T15:00:00 in file ww3.201809_fp.nc
Writing new record dir      number     78 for 2018:09:10T15:00:00 in file ww3.201809_dir.nc
      Files for 2018/09/10 18:00:00 UTC
Writing new record hs       number     79 for 2018:09:10T18:00:00 in file ww3.201809_hs.nc
Writing new record t02      number     79 for 2018:09:10T18:00:00 in file ww3.201809_t02.nc
Writing new record fp       number     79 for 2018:09:10T18:00:00 in file ww3.201809_fp.nc
Writing new record dir      number     79 for 2018:09:10T18:00:00 in file ww3.201809_dir.nc
      Files for 2018/09/10 21:00:00 UTC
Writing new record hs       number     80 for 2018:09:10T21:00:00 in file ww3.201809_hs.nc
Writing new record t02      number     80 for 2018:09:10T21:00:00 in file ww3.201809_t02.nc
Writing new record fp       number     80 for 2018:09:10T21:00:00 in file ww3.201809_fp.nc
Writing new record dir      number     80 for 2018:09:10T21:00:00 in file ww3.201809_dir.nc
      Files for 2018/09/11 00:00:00 UTC
Writing new record hs       number     81 for 2018:09:11T00:00:00 in file ww3.201809_hs.nc
Writing new record t02      number     81 for 2018:09:11T00:00:00 in file ww3.201809_t02.nc
Writing new record fp       number     81 for 2018:09:11T00:00:00 in file ww3.201809_fp.nc
Writing new record dir      number     81 for 2018:09:11T00:00:00 in file ww3.201809_dir.nc
      Files for 2018/09/11 03:00:00 UTC
Writing new record hs       number     82 for 2018:09:11T03:00:00 in file ww3.201809_hs.nc
Writing new record t02      number     82 for 2018:09:11T03:00:00 in file ww3.201809_t02.nc
Writing new record fp       number     82 for 2018:09:11T03:00:00 in file ww3.201809_fp.nc
Writing new record dir      number     82 for 2018:09:11T03:00:00 in file ww3.201809_dir.nc
      Files for 2018/09/11 06:00:00 UTC
Writing new record hs       number     83 for 2018:09:11T06:00:00 in file ww3.201809_hs.nc
Writing new record t02      number     83 for 2018:09:11T06:00:00 in file ww3.201809_t02.nc
Writing new record fp       number     83 for 2018:09:11T06:00:00 in file ww3.201809_fp.nc
Writing new record dir      number     83 for 2018:09:11T06:00:00 in file ww3.201809_dir.nc
      Files for 2018/09/11 09:00:00 UTC
Writing new record hs       number     84 for 2018:09:11T09:00:00 in file ww3.201809_hs.nc
Writing new record t02      number     84 for 2018:09:11T09:00:00 in file ww3.201809_t02.nc
Writing new record fp       number     84 for 2018:09:11T09:00:00 in file ww3.201809_fp.nc
Writing new record dir      number     84 for 2018:09:11T09:00:00 in file ww3.201809_dir.nc
      Files for 2018/09/11 12:00:00 UTC
Writing new record hs       number     85 for 2018:09:11T12:00:00 in file ww3.201809_hs.nc
Writing new record t02      number     85 for 2018:09:11T12:00:00 in file ww3.201809_t02.nc
Writing new record fp       number     85 for 2018:09:11T12:00:00 in file ww3.201809_fp.nc
Writing new record dir      number     85 for 2018:09:11T12:00:00 in file ww3.201809_dir.nc
      Files for 2018/09/11 15:00:00 UTC
Writing new record hs       number     86 for 2018:09:11T15:00:00 in file ww3.201809_hs.nc
Writing new record t02      number     86 for 2018:09:11T15:00:00 in file ww3.201809_t02.nc
Writing new record fp       number     86 for 2018:09:11T15:00:00 in file ww3.201809_fp.nc
Writing new record dir      number     86 for 2018:09:11T15:00:00 in file ww3.201809_dir.nc
      Files for 2018/09/11 18:00:00 UTC
Writing new record hs       number     87 for 2018:09:11T18:00:00 in file ww3.201809_hs.nc
Writing new record t02      number     87 for 2018:09:11T18:00:00 in file ww3.201809_t02.nc
Writing new record fp       number     87 for 2018:09:11T18:00:00 in file ww3.201809_fp.nc
Writing new record dir      number     87 for 2018:09:11T18:00:00 in file ww3.201809_dir.nc
      Files for 2018/09/11 21:00:00 UTC
Writing new record hs       number     88 for 2018:09:11T21:00:00 in file ww3.201809_hs.nc
Writing new record t02      number     88 for 2018:09:11T21:00:00 in file ww3.201809_t02.nc
Writing new record fp       number     88 for 2018:09:11T21:00:00 in file ww3.201809_fp.nc
Writing new record dir      number     88 for 2018:09:11T21:00:00 in file ww3.201809_dir.nc
      Files for 2018/09/12 00:00:00 UTC
Writing new record hs       number     89 for 2018:09:12T00:00:00 in file ww3.201809_hs.nc
Writing new record t02      number     89 for 2018:09:12T00:00:00 in file ww3.201809_t02.nc
Writing new record fp       number     89 for 2018:09:12T00:00:00 in file ww3.201809_fp.nc
Writing new record dir      number     89 for 2018:09:12T00:00:00 in file ww3.201809_dir.nc
      Files for 2018/09/12 03:00:00 UTC
Writing new record hs       number     90 for 2018:09:12T03:00:00 in file ww3.201809_hs.nc
Writing new record t02      number     90 for 2018:09:12T03:00:00 in file ww3.201809_t02.nc
Writing new record fp       number     90 for 2018:09:12T03:00:00 in file ww3.201809_fp.nc
Writing new record dir      number     90 for 2018:09:12T03:00:00 in file ww3.201809_dir.nc
      Files for 2018/09/12 06:00:00 UTC
Writing new record hs       number     91 for 2018:09:12T06:00:00 in file ww3.201809_hs.nc
Writing new record t02      number     91 for 2018:09:12T06:00:00 in file ww3.201809_t02.nc
Writing new record fp       number     91 for 2018:09:12T06:00:00 in file ww3.201809_fp.nc
Writing new record dir      number     91 for 2018:09:12T06:00:00 in file ww3.201809_dir.nc
      Files for 2018/09/12 09:00:00 UTC
Writing new record hs       number     92 for 2018:09:12T09:00:00 in file ww3.201809_hs.nc
Writing new record t02      number     92 for 2018:09:12T09:00:00 in file ww3.201809_t02.nc
Writing new record fp       number     92 for 2018:09:12T09:00:00 in file ww3.201809_fp.nc
Writing new record dir      number     92 for 2018:09:12T09:00:00 in file ww3.201809_dir.nc
      Files for 2018/09/12 12:00:00 UTC
Writing new record hs       number     93 for 2018:09:12T12:00:00 in file ww3.201809_hs.nc
Writing new record t02      number     93 for 2018:09:12T12:00:00 in file ww3.201809_t02.nc
Writing new record fp       number     93 for 2018:09:12T12:00:00 in file ww3.201809_fp.nc
Writing new record dir      number     93 for 2018:09:12T12:00:00 in file ww3.201809_dir.nc
      Files for 2018/09/12 15:00:00 UTC
Writing new record hs       number     94 for 2018:09:12T15:00:00 in file ww3.201809_hs.nc
Writing new record t02      number     94 for 2018:09:12T15:00:00 in file ww3.201809_t02.nc
Writing new record fp       number     94 for 2018:09:12T15:00:00 in file ww3.201809_fp.nc
Writing new record dir      number     94 for 2018:09:12T15:00:00 in file ww3.201809_dir.nc
      Files for 2018/09/12 18:00:00 UTC
Writing new record hs       number     95 for 2018:09:12T18:00:00 in file ww3.201809_hs.nc
Writing new record t02      number     95 for 2018:09:12T18:00:00 in file ww3.201809_t02.nc
Writing new record fp       number     95 for 2018:09:12T18:00:00 in file ww3.201809_fp.nc
Writing new record dir      number     95 for 2018:09:12T18:00:00 in file ww3.201809_dir.nc
      Files for 2018/09/12 21:00:00 UTC
Writing new record hs       number     96 for 2018:09:12T21:00:00 in file ww3.201809_hs.nc
Writing new record t02      number     96 for 2018:09:12T21:00:00 in file ww3.201809_t02.nc
Writing new record fp       number     96 for 2018:09:12T21:00:00 in file ww3.201809_fp.nc
Writing new record dir      number     96 for 2018:09:12T21:00:00 in file ww3.201809_dir.nc
      Files for 2018/09/13 00:00:00 UTC
Writing new record hs       number     97 for 2018:09:13T00:00:00 in file ww3.201809_hs.nc
Writing new record t02      number     97 for 2018:09:13T00:00:00 in file ww3.201809_t02.nc
Writing new record fp       number     97 for 2018:09:13T00:00:00 in file ww3.201809_fp.nc
Writing new record dir      number     97 for 2018:09:13T00:00:00 in file ww3.201809_dir.nc
      Files for 2018/09/13 03:00:00 UTC
Writing new record hs       number     98 for 2018:09:13T03:00:00 in file ww3.201809_hs.nc
Writing new record t02      number     98 for 2018:09:13T03:00:00 in file ww3.201809_t02.nc
Writing new record fp       number     98 for 2018:09:13T03:00:00 in file ww3.201809_fp.nc
Writing new record dir      number     98 for 2018:09:13T03:00:00 in file ww3.201809_dir.nc
      Files for 2018/09/13 06:00:00 UTC
Writing new record hs       number     99 for 2018:09:13T06:00:00 in file ww3.201809_hs.nc
Writing new record t02      number     99 for 2018:09:13T06:00:00 in file ww3.201809_t02.nc
Writing new record fp       number     99 for 2018:09:13T06:00:00 in file ww3.201809_fp.nc
Writing new record dir      number     99 for 2018:09:13T06:00:00 in file ww3.201809_dir.nc
      Files for 2018/09/13 09:00:00 UTC
Writing new record hs       number    100 for 2018:09:13T09:00:00 in file ww3.201809_hs.nc
Writing new record t02      number    100 for 2018:09:13T09:00:00 in file ww3.201809_t02.nc
Writing new record fp       number    100 for 2018:09:13T09:00:00 in file ww3.201809_fp.nc
Writing new record dir      number    100 for 2018:09:13T09:00:00 in file ww3.201809_dir.nc
      Files for 2018/09/13 12:00:00 UTC
Writing new record hs       number    101 for 2018:09:13T12:00:00 in file ww3.201809_hs.nc
Writing new record t02      number    101 for 2018:09:13T12:00:00 in file ww3.201809_t02.nc
Writing new record fp       number    101 for 2018:09:13T12:00:00 in file ww3.201809_fp.nc
Writing new record dir      number    101 for 2018:09:13T12:00:00 in file ww3.201809_dir.nc
      Files for 2018/09/13 15:00:00 UTC
Writing new record hs       number    102 for 2018:09:13T15:00:00 in file ww3.201809_hs.nc
Writing new record t02      number    102 for 2018:09:13T15:00:00 in file ww3.201809_t02.nc
Writing new record fp       number    102 for 2018:09:13T15:00:00 in file ww3.201809_fp.nc
Writing new record dir      number    102 for 2018:09:13T15:00:00 in file ww3.201809_dir.nc
      Files for 2018/09/13 18:00:00 UTC
Writing new record hs       number    103 for 2018:09:13T18:00:00 in file ww3.201809_hs.nc
Writing new record t02      number    103 for 2018:09:13T18:00:00 in file ww3.201809_t02.nc
Writing new record fp       number    103 for 2018:09:13T18:00:00 in file ww3.201809_fp.nc
Writing new record dir      number    103 for 2018:09:13T18:00:00 in file ww3.201809_dir.nc
      Files for 2018/09/13 21:00:00 UTC
Writing new record hs       number    104 for 2018:09:13T21:00:00 in file ww3.201809_hs.nc
Writing new record t02      number    104 for 2018:09:13T21:00:00 in file ww3.201809_t02.nc
Writing new record fp       number    104 for 2018:09:13T21:00:00 in file ww3.201809_fp.nc
Writing new record dir      number    104 for 2018:09:13T21:00:00 in file ww3.201809_dir.nc
      Files for 2018/09/14 00:00:00 UTC
Writing new record hs       number    105 for 2018:09:14T00:00:00 in file ww3.201809_hs.nc
Writing new record t02      number    105 for 2018:09:14T00:00:00 in file ww3.201809_t02.nc
Writing new record fp       number    105 for 2018:09:14T00:00:00 in file ww3.201809_fp.nc
Writing new record dir      number    105 for 2018:09:14T00:00:00 in file ww3.201809_dir.nc
      Files for 2018/09/14 03:00:00 UTC
Writing new record hs       number    106 for 2018:09:14T03:00:00 in file ww3.201809_hs.nc
Writing new record t02      number    106 for 2018:09:14T03:00:00 in file ww3.201809_t02.nc
Writing new record fp       number    106 for 2018:09:14T03:00:00 in file ww3.201809_fp.nc
Writing new record dir      number    106 for 2018:09:14T03:00:00 in file ww3.201809_dir.nc
      Files for 2018/09/14 06:00:00 UTC
Writing new record hs       number    107 for 2018:09:14T06:00:00 in file ww3.201809_hs.nc
Writing new record t02      number    107 for 2018:09:14T06:00:00 in file ww3.201809_t02.nc
Writing new record fp       number    107 for 2018:09:14T06:00:00 in file ww3.201809_fp.nc
Writing new record dir      number    107 for 2018:09:14T06:00:00 in file ww3.201809_dir.nc
      Files for 2018/09/14 09:00:00 UTC
Writing new record hs       number    108 for 2018:09:14T09:00:00 in file ww3.201809_hs.nc
Writing new record t02      number    108 for 2018:09:14T09:00:00 in file ww3.201809_t02.nc
Writing new record fp       number    108 for 2018:09:14T09:00:00 in file ww3.201809_fp.nc
Writing new record dir      number    108 for 2018:09:14T09:00:00 in file ww3.201809_dir.nc
      Files for 2018/09/14 12:00:00 UTC
Writing new record hs       number    109 for 2018:09:14T12:00:00 in file ww3.201809_hs.nc
Writing new record t02      number    109 for 2018:09:14T12:00:00 in file ww3.201809_t02.nc
Writing new record fp       number    109 for 2018:09:14T12:00:00 in file ww3.201809_fp.nc
Writing new record dir      number    109 for 2018:09:14T12:00:00 in file ww3.201809_dir.nc
      Files for 2018/09/14 15:00:00 UTC
Writing new record hs       number    110 for 2018:09:14T15:00:00 in file ww3.201809_hs.nc
Writing new record t02      number    110 for 2018:09:14T15:00:00 in file ww3.201809_t02.nc
Writing new record fp       number    110 for 2018:09:14T15:00:00 in file ww3.201809_fp.nc
Writing new record dir      number    110 for 2018:09:14T15:00:00 in file ww3.201809_dir.nc
      Files for 2018/09/14 18:00:00 UTC
Writing new record hs       number    111 for 2018:09:14T18:00:00 in file ww3.201809_hs.nc
Writing new record t02      number    111 for 2018:09:14T18:00:00 in file ww3.201809_t02.nc
Writing new record fp       number    111 for 2018:09:14T18:00:00 in file ww3.201809_fp.nc
Writing new record dir      number    111 for 2018:09:14T18:00:00 in file ww3.201809_dir.nc
      Files for 2018/09/14 21:00:00 UTC
Writing new record hs       number    112 for 2018:09:14T21:00:00 in file ww3.201809_hs.nc
Writing new record t02      number    112 for 2018:09:14T21:00:00 in file ww3.201809_t02.nc
Writing new record fp       number    112 for 2018:09:14T21:00:00 in file ww3.201809_fp.nc
Writing new record dir      number    112 for 2018:09:14T21:00:00 in file ww3.201809_dir.nc
      Files for 2018/09/15 00:00:00 UTC
Writing new record hs       number    113 for 2018:09:15T00:00:00 in file ww3.201809_hs.nc
Writing new record t02      number    113 for 2018:09:15T00:00:00 in file ww3.201809_t02.nc
Writing new record fp       number    113 for 2018:09:15T00:00:00 in file ww3.201809_fp.nc
Writing new record dir      number    113 for 2018:09:15T00:00:00 in file ww3.201809_dir.nc
      Files for 2018/09/15 03:00:00 UTC
Writing new record hs       number    114 for 2018:09:15T03:00:00 in file ww3.201809_hs.nc
Writing new record t02      number    114 for 2018:09:15T03:00:00 in file ww3.201809_t02.nc
Writing new record fp       number    114 for 2018:09:15T03:00:00 in file ww3.201809_fp.nc
Writing new record dir      number    114 for 2018:09:15T03:00:00 in file ww3.201809_dir.nc
      Files for 2018/09/15 06:00:00 UTC
Writing new record hs       number    115 for 2018:09:15T06:00:00 in file ww3.201809_hs.nc
Writing new record t02      number    115 for 2018:09:15T06:00:00 in file ww3.201809_t02.nc
Writing new record fp       number    115 for 2018:09:15T06:00:00 in file ww3.201809_fp.nc
Writing new record dir      number    115 for 2018:09:15T06:00:00 in file ww3.201809_dir.nc
      Files for 2018/09/15 09:00:00 UTC
Writing new record hs       number    116 for 2018:09:15T09:00:00 in file ww3.201809_hs.nc
Writing new record t02      number    116 for 2018:09:15T09:00:00 in file ww3.201809_t02.nc
Writing new record fp       number    116 for 2018:09:15T09:00:00 in file ww3.201809_fp.nc
Writing new record dir      number    116 for 2018:09:15T09:00:00 in file ww3.201809_dir.nc
      Files for 2018/09/15 12:00:00 UTC
Writing new record hs       number    117 for 2018:09:15T12:00:00 in file ww3.201809_hs.nc
Writing new record t02      number    117 for 2018:09:15T12:00:00 in file ww3.201809_t02.nc
Writing new record fp       number    117 for 2018:09:15T12:00:00 in file ww3.201809_fp.nc
Writing new record dir      number    117 for 2018:09:15T12:00:00 in file ww3.201809_dir.nc
      Files for 2018/09/15 15:00:00 UTC
Writing new record hs       number    118 for 2018:09:15T15:00:00 in file ww3.201809_hs.nc
Writing new record t02      number    118 for 2018:09:15T15:00:00 in file ww3.201809_t02.nc
Writing new record fp       number    118 for 2018:09:15T15:00:00 in file ww3.201809_fp.nc
Writing new record dir      number    118 for 2018:09:15T15:00:00 in file ww3.201809_dir.nc
      Files for 2018/09/15 18:00:00 UTC
Writing new record hs       number    119 for 2018:09:15T18:00:00 in file ww3.201809_hs.nc
Writing new record t02      number    119 for 2018:09:15T18:00:00 in file ww3.201809_t02.nc
Writing new record fp       number    119 for 2018:09:15T18:00:00 in file ww3.201809_fp.nc
Writing new record dir      number    119 for 2018:09:15T18:00:00 in file ww3.201809_dir.nc
      Files for 2018/09/15 21:00:00 UTC
Writing new record hs       number    120 for 2018:09:15T21:00:00 in file ww3.201809_hs.nc
Writing new record t02      number    120 for 2018:09:15T21:00:00 in file ww3.201809_t02.nc
Writing new record fp       number    120 for 2018:09:15T21:00:00 in file ww3.201809_fp.nc
Writing new record dir      number    120 for 2018:09:15T21:00:00 in file ww3.201809_dir.nc
      Files for 2018/09/16 00:00:00 UTC
Writing new record hs       number    121 for 2018:09:16T00:00:00 in file ww3.201809_hs.nc
Writing new record t02      number    121 for 2018:09:16T00:00:00 in file ww3.201809_t02.nc
Writing new record fp       number    121 for 2018:09:16T00:00:00 in file ww3.201809_fp.nc
Writing new record dir      number    121 for 2018:09:16T00:00:00 in file ww3.201809_dir.nc
      Files for 2018/09/16 03:00:00 UTC
Writing new record hs       number    122 for 2018:09:16T03:00:00 in file ww3.201809_hs.nc
Writing new record t02      number    122 for 2018:09:16T03:00:00 in file ww3.201809_t02.nc
Writing new record fp       number    122 for 2018:09:16T03:00:00 in file ww3.201809_fp.nc
Writing new record dir      number    122 for 2018:09:16T03:00:00 in file ww3.201809_dir.nc
      Files for 2018/09/16 06:00:00 UTC
Writing new record hs       number    123 for 2018:09:16T06:00:00 in file ww3.201809_hs.nc
Writing new record t02      number    123 for 2018:09:16T06:00:00 in file ww3.201809_t02.nc
Writing new record fp       number    123 for 2018:09:16T06:00:00 in file ww3.201809_fp.nc
Writing new record dir      number    123 for 2018:09:16T06:00:00 in file ww3.201809_dir.nc
      Files for 2018/09/16 09:00:00 UTC
Writing new record hs       number    124 for 2018:09:16T09:00:00 in file ww3.201809_hs.nc
Writing new record t02      number    124 for 2018:09:16T09:00:00 in file ww3.201809_t02.nc
Writing new record fp       number    124 for 2018:09:16T09:00:00 in file ww3.201809_fp.nc
Writing new record dir      number    124 for 2018:09:16T09:00:00 in file ww3.201809_dir.nc
      Files for 2018/09/16 12:00:00 UTC
Writing new record hs       number    125 for 2018:09:16T12:00:00 in file ww3.201809_hs.nc
Writing new record t02      number    125 for 2018:09:16T12:00:00 in file ww3.201809_t02.nc
Writing new record fp       number    125 for 2018:09:16T12:00:00 in file ww3.201809_fp.nc
Writing new record dir      number    125 for 2018:09:16T12:00:00 in file ww3.201809_dir.nc
      Files for 2018/09/16 15:00:00 UTC
Writing new record hs       number    126 for 2018:09:16T15:00:00 in file ww3.201809_hs.nc
Writing new record t02      number    126 for 2018:09:16T15:00:00 in file ww3.201809_t02.nc
Writing new record fp       number    126 for 2018:09:16T15:00:00 in file ww3.201809_fp.nc
Writing new record dir      number    126 for 2018:09:16T15:00:00 in file ww3.201809_dir.nc
      Files for 2018/09/16 18:00:00 UTC
Writing new record hs       number    127 for 2018:09:16T18:00:00 in file ww3.201809_hs.nc
Writing new record t02      number    127 for 2018:09:16T18:00:00 in file ww3.201809_t02.nc
Writing new record fp       number    127 for 2018:09:16T18:00:00 in file ww3.201809_fp.nc
Writing new record dir      number    127 for 2018:09:16T18:00:00 in file ww3.201809_dir.nc
      Files for 2018/09/16 21:00:00 UTC
Writing new record hs       number    128 for 2018:09:16T21:00:00 in file ww3.201809_hs.nc
Writing new record t02      number    128 for 2018:09:16T21:00:00 in file ww3.201809_t02.nc
Writing new record fp       number    128 for 2018:09:16T21:00:00 in file ww3.201809_fp.nc
Writing new record dir      number    128 for 2018:09:16T21:00:00 in file ww3.201809_dir.nc
      Files for 2018/09/17 00:00:00 UTC
Writing new record hs       number    129 for 2018:09:17T00:00:00 in file ww3.201809_hs.nc
Writing new record t02      number    129 for 2018:09:17T00:00:00 in file ww3.201809_t02.nc
Writing new record fp       number    129 for 2018:09:17T00:00:00 in file ww3.201809_fp.nc
Writing new record dir      number    129 for 2018:09:17T00:00:00 in file ww3.201809_dir.nc
      Files for 2018/09/17 03:00:00 UTC
Writing new record hs       number    130 for 2018:09:17T03:00:00 in file ww3.201809_hs.nc
Writing new record t02      number    130 for 2018:09:17T03:00:00 in file ww3.201809_t02.nc
Writing new record fp       number    130 for 2018:09:17T03:00:00 in file ww3.201809_fp.nc
Writing new record dir      number    130 for 2018:09:17T03:00:00 in file ww3.201809_dir.nc
      Files for 2018/09/17 06:00:00 UTC
Writing new record hs       number    131 for 2018:09:17T06:00:00 in file ww3.201809_hs.nc
Writing new record t02      number    131 for 2018:09:17T06:00:00 in file ww3.201809_t02.nc
Writing new record fp       number    131 for 2018:09:17T06:00:00 in file ww3.201809_fp.nc
Writing new record dir      number    131 for 2018:09:17T06:00:00 in file ww3.201809_dir.nc
      Files for 2018/09/17 09:00:00 UTC
Writing new record hs       number    132 for 2018:09:17T09:00:00 in file ww3.201809_hs.nc
Writing new record t02      number    132 for 2018:09:17T09:00:00 in file ww3.201809_t02.nc
Writing new record fp       number    132 for 2018:09:17T09:00:00 in file ww3.201809_fp.nc
Writing new record dir      number    132 for 2018:09:17T09:00:00 in file ww3.201809_dir.nc
      Files for 2018/09/17 12:00:00 UTC
Writing new record hs       number    133 for 2018:09:17T12:00:00 in file ww3.201809_hs.nc
Writing new record t02      number    133 for 2018:09:17T12:00:00 in file ww3.201809_t02.nc
Writing new record fp       number    133 for 2018:09:17T12:00:00 in file ww3.201809_fp.nc
Writing new record dir      number    133 for 2018:09:17T12:00:00 in file ww3.201809_dir.nc
      Files for 2018/09/17 15:00:00 UTC
Writing new record hs       number    134 for 2018:09:17T15:00:00 in file ww3.201809_hs.nc
Writing new record t02      number    134 for 2018:09:17T15:00:00 in file ww3.201809_t02.nc
Writing new record fp       number    134 for 2018:09:17T15:00:00 in file ww3.201809_fp.nc
Writing new record dir      number    134 for 2018:09:17T15:00:00 in file ww3.201809_dir.nc
      Files for 2018/09/17 18:00:00 UTC
Writing new record hs       number    135 for 2018:09:17T18:00:00 in file ww3.201809_hs.nc
Writing new record t02      number    135 for 2018:09:17T18:00:00 in file ww3.201809_t02.nc
Writing new record fp       number    135 for 2018:09:17T18:00:00 in file ww3.201809_fp.nc
Writing new record dir      number    135 for 2018:09:17T18:00:00 in file ww3.201809_dir.nc
      Files for 2018/09/17 21:00:00 UTC
Writing new record hs       number    136 for 2018:09:17T21:00:00 in file ww3.201809_hs.nc
Writing new record t02      number    136 for 2018:09:17T21:00:00 in file ww3.201809_t02.nc
Writing new record fp       number    136 for 2018:09:17T21:00:00 in file ww3.201809_fp.nc
Writing new record dir      number    136 for 2018:09:17T21:00:00 in file ww3.201809_dir.nc
      Files for 2018/09/18 00:00:00 UTC
Writing new record hs       number    137 for 2018:09:18T00:00:00 in file ww3.201809_hs.nc
Writing new record t02      number    137 for 2018:09:18T00:00:00 in file ww3.201809_t02.nc
Writing new record fp       number    137 for 2018:09:18T00:00:00 in file ww3.201809_fp.nc
Writing new record dir      number    137 for 2018:09:18T00:00:00 in file ww3.201809_dir.nc
      Files for 2018/09/18 03:00:00 UTC
Writing new record hs       number    138 for 2018:09:18T03:00:00 in file ww3.201809_hs.nc
Writing new record t02      number    138 for 2018:09:18T03:00:00 in file ww3.201809_t02.nc
Writing new record fp       number    138 for 2018:09:18T03:00:00 in file ww3.201809_fp.nc
Writing new record dir      number    138 for 2018:09:18T03:00:00 in file ww3.201809_dir.nc
      Files for 2018/09/18 06:00:00 UTC
Writing new record hs       number    139 for 2018:09:18T06:00:00 in file ww3.201809_hs.nc
Writing new record t02      number    139 for 2018:09:18T06:00:00 in file ww3.201809_t02.nc
Writing new record fp       number    139 for 2018:09:18T06:00:00 in file ww3.201809_fp.nc
Writing new record dir      number    139 for 2018:09:18T06:00:00 in file ww3.201809_dir.nc
      Files for 2018/09/18 09:00:00 UTC
Writing new record hs       number    140 for 2018:09:18T09:00:00 in file ww3.201809_hs.nc
Writing new record t02      number    140 for 2018:09:18T09:00:00 in file ww3.201809_t02.nc
Writing new record fp       number    140 for 2018:09:18T09:00:00 in file ww3.201809_fp.nc
Writing new record dir      number    140 for 2018:09:18T09:00:00 in file ww3.201809_dir.nc
      Files for 2018/09/18 12:00:00 UTC
Writing new record hs       number    141 for 2018:09:18T12:00:00 in file ww3.201809_hs.nc
Writing new record t02      number    141 for 2018:09:18T12:00:00 in file ww3.201809_t02.nc
Writing new record fp       number    141 for 2018:09:18T12:00:00 in file ww3.201809_fp.nc
Writing new record dir      number    141 for 2018:09:18T12:00:00 in file ww3.201809_dir.nc
      Files for 2018/09/18 15:00:00 UTC
Writing new record hs       number    142 for 2018:09:18T15:00:00 in file ww3.201809_hs.nc
Writing new record t02      number    142 for 2018:09:18T15:00:00 in file ww3.201809_t02.nc
Writing new record fp       number    142 for 2018:09:18T15:00:00 in file ww3.201809_fp.nc
Writing new record dir      number    142 for 2018:09:18T15:00:00 in file ww3.201809_dir.nc
      Files for 2018/09/18 18:00:00 UTC
Writing new record hs       number    143 for 2018:09:18T18:00:00 in file ww3.201809_hs.nc
Writing new record t02      number    143 for 2018:09:18T18:00:00 in file ww3.201809_t02.nc
Writing new record fp       number    143 for 2018:09:18T18:00:00 in file ww3.201809_fp.nc
Writing new record dir      number    143 for 2018:09:18T18:00:00 in file ww3.201809_dir.nc
      Files for 2018/09/18 21:00:00 UTC
Writing new record hs       number    144 for 2018:09:18T21:00:00 in file ww3.201809_hs.nc
Writing new record t02      number    144 for 2018:09:18T21:00:00 in file ww3.201809_t02.nc
Writing new record fp       number    144 for 2018:09:18T21:00:00 in file ww3.201809_fp.nc
Writing new record dir      number    144 for 2018:09:18T21:00:00 in file ww3.201809_dir.nc
      Files for 2018/09/19 00:00:00 UTC
Writing new record hs       number    145 for 2018:09:19T00:00:00 in file ww3.201809_hs.nc
Writing new record t02      number    145 for 2018:09:19T00:00:00 in file ww3.201809_t02.nc
Writing new record fp       number    145 for 2018:09:19T00:00:00 in file ww3.201809_fp.nc
Writing new record dir      number    145 for 2018:09:19T00:00:00 in file ww3.201809_dir.nc
      Files for 2018/09/19 03:00:00 UTC
Writing new record hs       number    146 for 2018:09:19T03:00:00 in file ww3.201809_hs.nc
Writing new record t02      number    146 for 2018:09:19T03:00:00 in file ww3.201809_t02.nc
Writing new record fp       number    146 for 2018:09:19T03:00:00 in file ww3.201809_fp.nc
Writing new record dir      number    146 for 2018:09:19T03:00:00 in file ww3.201809_dir.nc
      Files for 2018/09/19 06:00:00 UTC
Writing new record hs       number    147 for 2018:09:19T06:00:00 in file ww3.201809_hs.nc
Writing new record t02      number    147 for 2018:09:19T06:00:00 in file ww3.201809_t02.nc
Writing new record fp       number    147 for 2018:09:19T06:00:00 in file ww3.201809_fp.nc
Writing new record dir      number    147 for 2018:09:19T06:00:00 in file ww3.201809_dir.nc
      Files for 2018/09/19 09:00:00 UTC
Writing new record hs       number    148 for 2018:09:19T09:00:00 in file ww3.201809_hs.nc
Writing new record t02      number    148 for 2018:09:19T09:00:00 in file ww3.201809_t02.nc
Writing new record fp       number    148 for 2018:09:19T09:00:00 in file ww3.201809_fp.nc
Writing new record dir      number    148 for 2018:09:19T09:00:00 in file ww3.201809_dir.nc
      Files for 2018/09/19 12:00:00 UTC
Writing new record hs       number    149 for 2018:09:19T12:00:00 in file ww3.201809_hs.nc
Writing new record t02      number    149 for 2018:09:19T12:00:00 in file ww3.201809_t02.nc
Writing new record fp       number    149 for 2018:09:19T12:00:00 in file ww3.201809_fp.nc
Writing new record dir      number    149 for 2018:09:19T12:00:00 in file ww3.201809_dir.nc
      Files for 2018/09/19 15:00:00 UTC
Writing new record hs       number    150 for 2018:09:19T15:00:00 in file ww3.201809_hs.nc
Writing new record t02      number    150 for 2018:09:19T15:00:00 in file ww3.201809_t02.nc
Writing new record fp       number    150 for 2018:09:19T15:00:00 in file ww3.201809_fp.nc
Writing new record dir      number    150 for 2018:09:19T15:00:00 in file ww3.201809_dir.nc
      Files for 2018/09/19 18:00:00 UTC
Writing new record hs       number    151 for 2018:09:19T18:00:00 in file ww3.201809_hs.nc
Writing new record t02      number    151 for 2018:09:19T18:00:00 in file ww3.201809_t02.nc
Writing new record fp       number    151 for 2018:09:19T18:00:00 in file ww3.201809_fp.nc
Writing new record dir      number    151 for 2018:09:19T18:00:00 in file ww3.201809_dir.nc
      Files for 2018/09/19 21:00:00 UTC
Writing new record hs       number    152 for 2018:09:19T21:00:00 in file ww3.201809_hs.nc
Writing new record t02      number    152 for 2018:09:19T21:00:00 in file ww3.201809_t02.nc
Writing new record fp       number    152 for 2018:09:19T21:00:00 in file ww3.201809_fp.nc
Writing new record dir      number    152 for 2018:09:19T21:00:00 in file ww3.201809_dir.nc
      Files for 2018/09/20 00:00:00 UTC
Writing new record hs       number    153 for 2018:09:20T00:00:00 in file ww3.201809_hs.nc
Writing new record t02      number    153 for 2018:09:20T00:00:00 in file ww3.201809_t02.nc
Writing new record fp       number    153 for 2018:09:20T00:00:00 in file ww3.201809_fp.nc
Writing new record dir      number    153 for 2018:09:20T00:00:00 in file ww3.201809_dir.nc
      Files for 2018/09/20 03:00:00 UTC
Writing new record hs       number    154 for 2018:09:20T03:00:00 in file ww3.201809_hs.nc
Writing new record t02      number    154 for 2018:09:20T03:00:00 in file ww3.201809_t02.nc
Writing new record fp       number    154 for 2018:09:20T03:00:00 in file ww3.201809_fp.nc
Writing new record dir      number    154 for 2018:09:20T03:00:00 in file ww3.201809_dir.nc
      Files for 2018/09/20 06:00:00 UTC
Writing new record hs       number    155 for 2018:09:20T06:00:00 in file ww3.201809_hs.nc
Writing new record t02      number    155 for 2018:09:20T06:00:00 in file ww3.201809_t02.nc
Writing new record fp       number    155 for 2018:09:20T06:00:00 in file ww3.201809_fp.nc
Writing new record dir      number    155 for 2018:09:20T06:00:00 in file ww3.201809_dir.nc
      Files for 2018/09/20 09:00:00 UTC
Writing new record hs       number    156 for 2018:09:20T09:00:00 in file ww3.201809_hs.nc
Writing new record t02      number    156 for 2018:09:20T09:00:00 in file ww3.201809_t02.nc
Writing new record fp       number    156 for 2018:09:20T09:00:00 in file ww3.201809_fp.nc
Writing new record dir      number    156 for 2018:09:20T09:00:00 in file ww3.201809_dir.nc
      Files for 2018/09/20 12:00:00 UTC
Writing new record hs       number    157 for 2018:09:20T12:00:00 in file ww3.201809_hs.nc
Writing new record t02      number    157 for 2018:09:20T12:00:00 in file ww3.201809_t02.nc
Writing new record fp       number    157 for 2018:09:20T12:00:00 in file ww3.201809_fp.nc
Writing new record dir      number    157 for 2018:09:20T12:00:00 in file ww3.201809_dir.nc
      Files for 2018/09/20 15:00:00 UTC
Writing new record hs       number    158 for 2018:09:20T15:00:00 in file ww3.201809_hs.nc
Writing new record t02      number    158 for 2018:09:20T15:00:00 in file ww3.201809_t02.nc
Writing new record fp       number    158 for 2018:09:20T15:00:00 in file ww3.201809_fp.nc
Writing new record dir      number    158 for 2018:09:20T15:00:00 in file ww3.201809_dir.nc
      Files for 2018/09/20 18:00:00 UTC
Writing new record hs       number    159 for 2018:09:20T18:00:00 in file ww3.201809_hs.nc
Writing new record t02      number    159 for 2018:09:20T18:00:00 in file ww3.201809_t02.nc
Writing new record fp       number    159 for 2018:09:20T18:00:00 in file ww3.201809_fp.nc
Writing new record dir      number    159 for 2018:09:20T18:00:00 in file ww3.201809_dir.nc
      Files for 2018/09/20 21:00:00 UTC
Writing new record hs       number    160 for 2018:09:20T21:00:00 in file ww3.201809_hs.nc
Writing new record t02      number    160 for 2018:09:20T21:00:00 in file ww3.201809_t02.nc
Writing new record fp       number    160 for 2018:09:20T21:00:00 in file ww3.201809_fp.nc
Writing new record dir      number    160 for 2018:09:20T21:00:00 in file ww3.201809_dir.nc
      Files for 2018/09/21 00:00:00 UTC
Writing new record hs       number    161 for 2018:09:21T00:00:00 in file ww3.201809_hs.nc
Writing new record t02      number    161 for 2018:09:21T00:00:00 in file ww3.201809_t02.nc
Writing new record fp       number    161 for 2018:09:21T00:00:00 in file ww3.201809_fp.nc
Writing new record dir      number    161 for 2018:09:21T00:00:00 in file ww3.201809_dir.nc
      Files for 2018/09/21 03:00:00 UTC
Writing new record hs       number    162 for 2018:09:21T03:00:00 in file ww3.201809_hs.nc
Writing new record t02      number    162 for 2018:09:21T03:00:00 in file ww3.201809_t02.nc
Writing new record fp       number    162 for 2018:09:21T03:00:00 in file ww3.201809_fp.nc
Writing new record dir      number    162 for 2018:09:21T03:00:00 in file ww3.201809_dir.nc
      Files for 2018/09/21 06:00:00 UTC
Writing new record hs       number    163 for 2018:09:21T06:00:00 in file ww3.201809_hs.nc
Writing new record t02      number    163 for 2018:09:21T06:00:00 in file ww3.201809_t02.nc
Writing new record fp       number    163 for 2018:09:21T06:00:00 in file ww3.201809_fp.nc
Writing new record dir      number    163 for 2018:09:21T06:00:00 in file ww3.201809_dir.nc
      Files for 2018/09/21 09:00:00 UTC
Writing new record hs       number    164 for 2018:09:21T09:00:00 in file ww3.201809_hs.nc
Writing new record t02      number    164 for 2018:09:21T09:00:00 in file ww3.201809_t02.nc
Writing new record fp       number    164 for 2018:09:21T09:00:00 in file ww3.201809_fp.nc
Writing new record dir      number    164 for 2018:09:21T09:00:00 in file ww3.201809_dir.nc
      Files for 2018/09/21 12:00:00 UTC
Writing new record hs       number    165 for 2018:09:21T12:00:00 in file ww3.201809_hs.nc
Writing new record t02      number    165 for 2018:09:21T12:00:00 in file ww3.201809_t02.nc
Writing new record fp       number    165 for 2018:09:21T12:00:00 in file ww3.201809_fp.nc
Writing new record dir      number    165 for 2018:09:21T12:00:00 in file ww3.201809_dir.nc
      Files for 2018/09/21 15:00:00 UTC
Writing new record hs       number    166 for 2018:09:21T15:00:00 in file ww3.201809_hs.nc
Writing new record t02      number    166 for 2018:09:21T15:00:00 in file ww3.201809_t02.nc
Writing new record fp       number    166 for 2018:09:21T15:00:00 in file ww3.201809_fp.nc
Writing new record dir      number    166 for 2018:09:21T15:00:00 in file ww3.201809_dir.nc
      Files for 2018/09/21 18:00:00 UTC
Writing new record hs       number    167 for 2018:09:21T18:00:00 in file ww3.201809_hs.nc
Writing new record t02      number    167 for 2018:09:21T18:00:00 in file ww3.201809_t02.nc
Writing new record fp       number    167 for 2018:09:21T18:00:00 in file ww3.201809_fp.nc
Writing new record dir      number    167 for 2018:09:21T18:00:00 in file ww3.201809_dir.nc
      Files for 2018/09/21 21:00:00 UTC
Writing new record hs       number    168 for 2018:09:21T21:00:00 in file ww3.201809_hs.nc
Writing new record t02      number    168 for 2018:09:21T21:00:00 in file ww3.201809_t02.nc
Writing new record fp       number    168 for 2018:09:21T21:00:00 in file ww3.201809_fp.nc
Writing new record dir      number    168 for 2018:09:21T21:00:00 in file ww3.201809_dir.nc
      Files for 2018/09/22 00:00:00 UTC
Writing new record hs       number    169 for 2018:09:22T00:00:00 in file ww3.201809_hs.nc
Writing new record t02      number    169 for 2018:09:22T00:00:00 in file ww3.201809_t02.nc
Writing new record fp       number    169 for 2018:09:22T00:00:00 in file ww3.201809_fp.nc
Writing new record dir      number    169 for 2018:09:22T00:00:00 in file ww3.201809_dir.nc
      Files for 2018/09/22 03:00:00 UTC
Writing new record hs       number    170 for 2018:09:22T03:00:00 in file ww3.201809_hs.nc
Writing new record t02      number    170 for 2018:09:22T03:00:00 in file ww3.201809_t02.nc
Writing new record fp       number    170 for 2018:09:22T03:00:00 in file ww3.201809_fp.nc
Writing new record dir      number    170 for 2018:09:22T03:00:00 in file ww3.201809_dir.nc
      Files for 2018/09/22 06:00:00 UTC
Writing new record hs       number    171 for 2018:09:22T06:00:00 in file ww3.201809_hs.nc
Writing new record t02      number    171 for 2018:09:22T06:00:00 in file ww3.201809_t02.nc
Writing new record fp       number    171 for 2018:09:22T06:00:00 in file ww3.201809_fp.nc
Writing new record dir      number    171 for 2018:09:22T06:00:00 in file ww3.201809_dir.nc
      Files for 2018/09/22 09:00:00 UTC
Writing new record hs       number    172 for 2018:09:22T09:00:00 in file ww3.201809_hs.nc
Writing new record t02      number    172 for 2018:09:22T09:00:00 in file ww3.201809_t02.nc
Writing new record fp       number    172 for 2018:09:22T09:00:00 in file ww3.201809_fp.nc
Writing new record dir      number    172 for 2018:09:22T09:00:00 in file ww3.201809_dir.nc
      Files for 2018/09/22 12:00:00 UTC
Writing new record hs       number    173 for 2018:09:22T12:00:00 in file ww3.201809_hs.nc
Writing new record t02      number    173 for 2018:09:22T12:00:00 in file ww3.201809_t02.nc
Writing new record fp       number    173 for 2018:09:22T12:00:00 in file ww3.201809_fp.nc
Writing new record dir      number    173 for 2018:09:22T12:00:00 in file ww3.201809_dir.nc
      Files for 2018/09/22 15:00:00 UTC
Writing new record hs       number    174 for 2018:09:22T15:00:00 in file ww3.201809_hs.nc
Writing new record t02      number    174 for 2018:09:22T15:00:00 in file ww3.201809_t02.nc
Writing new record fp       number    174 for 2018:09:22T15:00:00 in file ww3.201809_fp.nc
Writing new record dir      number    174 for 2018:09:22T15:00:00 in file ww3.201809_dir.nc
      Files for 2018/09/22 18:00:00 UTC
Writing new record hs       number    175 for 2018:09:22T18:00:00 in file ww3.201809_hs.nc
Writing new record t02      number    175 for 2018:09:22T18:00:00 in file ww3.201809_t02.nc
Writing new record fp       number    175 for 2018:09:22T18:00:00 in file ww3.201809_fp.nc
Writing new record dir      number    175 for 2018:09:22T18:00:00 in file ww3.201809_dir.nc
      Files for 2018/09/22 21:00:00 UTC
Writing new record hs       number    176 for 2018:09:22T21:00:00 in file ww3.201809_hs.nc
Writing new record t02      number    176 for 2018:09:22T21:00:00 in file ww3.201809_t02.nc
Writing new record fp       number    176 for 2018:09:22T21:00:00 in file ww3.201809_fp.nc
Writing new record dir      number    176 for 2018:09:22T21:00:00 in file ww3.201809_dir.nc
      Files for 2018/09/23 00:00:00 UTC
Writing new record hs       number    177 for 2018:09:23T00:00:00 in file ww3.201809_hs.nc
Writing new record t02      number    177 for 2018:09:23T00:00:00 in file ww3.201809_t02.nc
Writing new record fp       number    177 for 2018:09:23T00:00:00 in file ww3.201809_fp.nc
Writing new record dir      number    177 for 2018:09:23T00:00:00 in file ww3.201809_dir.nc
      Files for 2018/09/23 03:00:00 UTC
Writing new record hs       number    178 for 2018:09:23T03:00:00 in file ww3.201809_hs.nc
Writing new record t02      number    178 for 2018:09:23T03:00:00 in file ww3.201809_t02.nc
Writing new record fp       number    178 for 2018:09:23T03:00:00 in file ww3.201809_fp.nc
Writing new record dir      number    178 for 2018:09:23T03:00:00 in file ww3.201809_dir.nc
      Files for 2018/09/23 06:00:00 UTC
Writing new record hs       number    179 for 2018:09:23T06:00:00 in file ww3.201809_hs.nc
Writing new record t02      number    179 for 2018:09:23T06:00:00 in file ww3.201809_t02.nc
Writing new record fp       number    179 for 2018:09:23T06:00:00 in file ww3.201809_fp.nc
Writing new record dir      number    179 for 2018:09:23T06:00:00 in file ww3.201809_dir.nc
      Files for 2018/09/23 09:00:00 UTC
Writing new record hs       number    180 for 2018:09:23T09:00:00 in file ww3.201809_hs.nc
Writing new record t02      number    180 for 2018:09:23T09:00:00 in file ww3.201809_t02.nc
Writing new record fp       number    180 for 2018:09:23T09:00:00 in file ww3.201809_fp.nc
Writing new record dir      number    180 for 2018:09:23T09:00:00 in file ww3.201809_dir.nc
      Files for 2018/09/23 12:00:00 UTC
Writing new record hs       number    181 for 2018:09:23T12:00:00 in file ww3.201809_hs.nc
Writing new record t02      number    181 for 2018:09:23T12:00:00 in file ww3.201809_t02.nc
Writing new record fp       number    181 for 2018:09:23T12:00:00 in file ww3.201809_fp.nc
Writing new record dir      number    181 for 2018:09:23T12:00:00 in file ww3.201809_dir.nc
      Files for 2018/09/23 15:00:00 UTC
Writing new record hs       number    182 for 2018:09:23T15:00:00 in file ww3.201809_hs.nc
Writing new record t02      number    182 for 2018:09:23T15:00:00 in file ww3.201809_t02.nc
Writing new record fp       number    182 for 2018:09:23T15:00:00 in file ww3.201809_fp.nc
Writing new record dir      number    182 for 2018:09:23T15:00:00 in file ww3.201809_dir.nc
      Files for 2018/09/23 18:00:00 UTC
Writing new record hs       number    183 for 2018:09:23T18:00:00 in file ww3.201809_hs.nc
Writing new record t02      number    183 for 2018:09:23T18:00:00 in file ww3.201809_t02.nc
Writing new record fp       number    183 for 2018:09:23T18:00:00 in file ww3.201809_fp.nc
Writing new record dir      number    183 for 2018:09:23T18:00:00 in file ww3.201809_dir.nc
      Files for 2018/09/23 21:00:00 UTC
Writing new record hs       number    184 for 2018:09:23T21:00:00 in file ww3.201809_hs.nc
Writing new record t02      number    184 for 2018:09:23T21:00:00 in file ww3.201809_t02.nc
Writing new record fp       number    184 for 2018:09:23T21:00:00 in file ww3.201809_fp.nc
Writing new record dir      number    184 for 2018:09:23T21:00:00 in file ww3.201809_dir.nc
      Files for 2018/09/24 00:00:00 UTC
Writing new record hs       number    185 for 2018:09:24T00:00:00 in file ww3.201809_hs.nc
Writing new record t02      number    185 for 2018:09:24T00:00:00 in file ww3.201809_t02.nc
Writing new record fp       number    185 for 2018:09:24T00:00:00 in file ww3.201809_fp.nc
Writing new record dir      number    185 for 2018:09:24T00:00:00 in file ww3.201809_dir.nc
      Files for 2018/09/24 03:00:00 UTC
Writing new record hs       number    186 for 2018:09:24T03:00:00 in file ww3.201809_hs.nc
Writing new record t02      number    186 for 2018:09:24T03:00:00 in file ww3.201809_t02.nc
Writing new record fp       number    186 for 2018:09:24T03:00:00 in file ww3.201809_fp.nc
Writing new record dir      number    186 for 2018:09:24T03:00:00 in file ww3.201809_dir.nc
      Files for 2018/09/24 06:00:00 UTC
Writing new record hs       number    187 for 2018:09:24T06:00:00 in file ww3.201809_hs.nc
Writing new record t02      number    187 for 2018:09:24T06:00:00 in file ww3.201809_t02.nc
Writing new record fp       number    187 for 2018:09:24T06:00:00 in file ww3.201809_fp.nc
Writing new record dir      number    187 for 2018:09:24T06:00:00 in file ww3.201809_dir.nc
      Files for 2018/09/24 09:00:00 UTC
Writing new record hs       number    188 for 2018:09:24T09:00:00 in file ww3.201809_hs.nc
Writing new record t02      number    188 for 2018:09:24T09:00:00 in file ww3.201809_t02.nc
Writing new record fp       number    188 for 2018:09:24T09:00:00 in file ww3.201809_fp.nc
Writing new record dir      number    188 for 2018:09:24T09:00:00 in file ww3.201809_dir.nc
      Files for 2018/09/24 12:00:00 UTC
Writing new record hs       number    189 for 2018:09:24T12:00:00 in file ww3.201809_hs.nc
Writing new record t02      number    189 for 2018:09:24T12:00:00 in file ww3.201809_t02.nc
Writing new record fp       number    189 for 2018:09:24T12:00:00 in file ww3.201809_fp.nc
Writing new record dir      number    189 for 2018:09:24T12:00:00 in file ww3.201809_dir.nc
      Files for 2018/09/24 15:00:00 UTC
Writing new record hs       number    190 for 2018:09:24T15:00:00 in file ww3.201809_hs.nc
Writing new record t02      number    190 for 2018:09:24T15:00:00 in file ww3.201809_t02.nc
Writing new record fp       number    190 for 2018:09:24T15:00:00 in file ww3.201809_fp.nc
Writing new record dir      number    190 for 2018:09:24T15:00:00 in file ww3.201809_dir.nc
      Files for 2018/09/24 18:00:00 UTC
Writing new record hs       number    191 for 2018:09:24T18:00:00 in file ww3.201809_hs.nc
Writing new record t02      number    191 for 2018:09:24T18:00:00 in file ww3.201809_t02.nc
Writing new record fp       number    191 for 2018:09:24T18:00:00 in file ww3.201809_fp.nc
Writing new record dir      number    191 for 2018:09:24T18:00:00 in file ww3.201809_dir.nc
      Files for 2018/09/24 21:00:00 UTC
Writing new record hs       number    192 for 2018:09:24T21:00:00 in file ww3.201809_hs.nc
Writing new record t02      number    192 for 2018:09:24T21:00:00 in file ww3.201809_t02.nc
Writing new record fp       number    192 for 2018:09:24T21:00:00 in file ww3.201809_fp.nc
Writing new record dir      number    192 for 2018:09:24T21:00:00 in file ww3.201809_dir.nc
      Files for 2018/09/25 00:00:00 UTC
Writing new record hs       number    193 for 2018:09:25T00:00:00 in file ww3.201809_hs.nc
Writing new record t02      number    193 for 2018:09:25T00:00:00 in file ww3.201809_t02.nc
Writing new record fp       number    193 for 2018:09:25T00:00:00 in file ww3.201809_fp.nc
Writing new record dir      number    193 for 2018:09:25T00:00:00 in file ww3.201809_dir.nc
      Files for 2018/09/25 03:00:00 UTC
Writing new record hs       number    194 for 2018:09:25T03:00:00 in file ww3.201809_hs.nc
Writing new record t02      number    194 for 2018:09:25T03:00:00 in file ww3.201809_t02.nc
[...]
Writing new record hs       number    200 for 2018:12:25T21:00:00 in file ww3.201812_hs.nc
Writing new record t02      number    200 for 2018:12:25T21:00:00 in file ww3.201812_t02.nc
Writing new record fp       number    200 for 2018:12:25T21:00:00 in file ww3.201812_fp.nc
Writing new record dir      number    200 for 2018:12:25T21:00:00 in file ww3.201812_dir.nc
      Files for 2018/12/26 00:00:00 UTC
Writing new record hs       number    201 for 2018:12:26T00:00:00 in file ww3.201812_hs.nc
Writing new record t02      number    201 for 2018:12:26T00:00:00 in file ww3.201812_t02.nc
Writing new record fp       number    201 for 2018:12:26T00:00:00 in file ww3.201812_fp.nc
Writing new record dir      number    201 for 2018:12:26T00:00:00 in file ww3.201812_dir.nc
      Files for 2018/12/26 03:00:00 UTC
Writing new record hs       number    202 for 2018:12:26T03:00:00 in file ww3.201812_hs.nc
Writing new record t02      number    202 for 2018:12:26T03:00:00 in file ww3.201812_t02.nc
Writing new record fp       number    202 for 2018:12:26T03:00:00 in file ww3.201812_fp.nc
Writing new record dir      number    202 for 2018:12:26T03:00:00 in file ww3.201812_dir.nc
      Files for 2018/12/26 06:00:00 UTC
Writing new record hs       number    203 for 2018:12:26T06:00:00 in file ww3.201812_hs.nc
Writing new record t02      number    203 for 2018:12:26T06:00:00 in file ww3.201812_t02.nc
Writing new record fp       number    203 for 2018:12:26T06:00:00 in file ww3.201812_fp.nc
Writing new record dir      number    203 for 2018:12:26T06:00:00 in file ww3.201812_dir.nc
      Files for 2018/12/26 09:00:00 UTC
Writing new record hs       number    204 for 2018:12:26T09:00:00 in file ww3.201812_hs.nc
Writing new record t02      number    204 for 2018:12:26T09:00:00 in file ww3.201812_t02.nc
Writing new record fp       number    204 for 2018:12:26T09:00:00 in file ww3.201812_fp.nc
Writing new record dir      number    204 for 2018:12:26T09:00:00 in file ww3.201812_dir.nc
      Files for 2018/12/26 12:00:00 UTC
Writing new record hs       number    205 for 2018:12:26T12:00:00 in file ww3.201812_hs.nc
Writing new record t02      number    205 for 2018:12:26T12:00:00 in file ww3.201812_t02.nc
Writing new record fp       number    205 for 2018:12:26T12:00:00 in file ww3.201812_fp.nc
Writing new record dir      number    205 for 2018:12:26T12:00:00 in file ww3.201812_dir.nc
      Files for 2018/12/26 15:00:00 UTC
Writing new record hs       number    206 for 2018:12:26T15:00:00 in file ww3.201812_hs.nc
Writing new record t02      number    206 for 2018:12:26T15:00:00 in file ww3.201812_t02.nc
Writing new record fp       number    206 for 2018:12:26T15:00:00 in file ww3.201812_fp.nc
Writing new record dir      number    206 for 2018:12:26T15:00:00 in file ww3.201812_dir.nc
      Files for 2018/12/26 18:00:00 UTC
Writing new record hs       number    207 for 2018:12:26T18:00:00 in file ww3.201812_hs.nc
Writing new record t02      number    207 for 2018:12:26T18:00:00 in file ww3.201812_t02.nc
Writing new record fp       number    207 for 2018:12:26T18:00:00 in file ww3.201812_fp.nc
Writing new record dir      number    207 for 2018:12:26T18:00:00 in file ww3.201812_dir.nc
      Files for 2018/12/26 21:00:00 UTC
Writing new record hs       number    208 for 2018:12:26T21:00:00 in file ww3.201812_hs.nc
Writing new record t02      number    208 for 2018:12:26T21:00:00 in file ww3.201812_t02.nc
Writing new record fp       number    208 for 2018:12:26T21:00:00 in file ww3.201812_fp.nc
Writing new record dir      number    208 for 2018:12:26T21:00:00 in file ww3.201812_dir.nc
      Files for 2018/12/27 00:00:00 UTC
Writing new record hs       number    209 for 2018:12:27T00:00:00 in file ww3.201812_hs.nc
Writing new record t02      number    209 for 2018:12:27T00:00:00 in file ww3.201812_t02.nc
Writing new record fp       number    209 for 2018:12:27T00:00:00 in file ww3.201812_fp.nc
Writing new record dir      number    209 for 2018:12:27T00:00:00 in file ww3.201812_dir.nc
      Files for 2018/12/27 03:00:00 UTC
Writing new record hs       number    210 for 2018:12:27T03:00:00 in file ww3.201812_hs.nc
Writing new record t02      number    210 for 2018:12:27T03:00:00 in file ww3.201812_t02.nc
Writing new record fp       number    210 for 2018:12:27T03:00:00 in file ww3.201812_fp.nc
Writing new record dir      number    210 for 2018:12:27T03:00:00 in file ww3.201812_dir.nc
      Files for 2018/12/27 06:00:00 UTC
Writing new record hs       number    211 for 2018:12:27T06:00:00 in file ww3.201812_hs.nc
Writing new record t02      number    211 for 2018:12:27T06:00:00 in file ww3.201812_t02.nc
Writing new record fp       number    211 for 2018:12:27T06:00:00 in file ww3.201812_fp.nc
Writing new record dir      number    211 for 2018:12:27T06:00:00 in file ww3.201812_dir.nc
      Files for 2018/12/27 09:00:00 UTC
Writing new record hs       number    212 for 2018:12:27T09:00:00 in file ww3.201812_hs.nc
Writing new record t02      number    212 for 2018:12:27T09:00:00 in file ww3.201812_t02.nc
Writing new record fp       number    212 for 2018:12:27T09:00:00 in file ww3.201812_fp.nc
Writing new record dir      number    212 for 2018:12:27T09:00:00 in file ww3.201812_dir.nc
      Files for 2018/12/27 12:00:00 UTC
Writing new record hs       number    213 for 2018:12:27T12:00:00 in file ww3.201812_hs.nc
Writing new record t02      number    213 for 2018:12:27T12:00:00 in file ww3.201812_t02.nc
Writing new record fp       number    213 for 2018:12:27T12:00:00 in file ww3.201812_fp.nc
Writing new record dir      number    213 for 2018:12:27T12:00:00 in file ww3.201812_dir.nc
      Files for 2018/12/27 15:00:00 UTC
Writing new record hs       number    214 for 2018:12:27T15:00:00 in file ww3.201812_hs.nc
Writing new record t02      number    214 for 2018:12:27T15:00:00 in file ww3.201812_t02.nc
Writing new record fp       number    214 for 2018:12:27T15:00:00 in file ww3.201812_fp.nc
Writing new record dir      number    214 for 2018:12:27T15:00:00 in file ww3.201812_dir.nc
      Files for 2018/12/27 18:00:00 UTC
Writing new record hs       number    215 for 2018:12:27T18:00:00 in file ww3.201812_hs.nc
Writing new record t02      number    215 for 2018:12:27T18:00:00 in file ww3.201812_t02.nc
Writing new record fp       number    215 for 2018:12:27T18:00:00 in file ww3.201812_fp.nc
Writing new record dir      number    215 for 2018:12:27T18:00:00 in file ww3.201812_dir.nc
      Files for 2018/12/27 21:00:00 UTC
Writing new record hs       number    216 for 2018:12:27T21:00:00 in file ww3.201812_hs.nc
Writing new record t02      number    216 for 2018:12:27T21:00:00 in file ww3.201812_t02.nc
Writing new record fp       number    216 for 2018:12:27T21:00:00 in file ww3.201812_fp.nc
Writing new record dir      number    216 for 2018:12:27T21:00:00 in file ww3.201812_dir.nc
      Files for 2018/12/28 00:00:00 UTC
Writing new record hs       number    217 for 2018:12:28T00:00:00 in file ww3.201812_hs.nc
Writing new record t02      number    217 for 2018:12:28T00:00:00 in file ww3.201812_t02.nc
Writing new record fp       number    217 for 2018:12:28T00:00:00 in file ww3.201812_fp.nc
Writing new record dir      number    217 for 2018:12:28T00:00:00 in file ww3.201812_dir.nc
      Files for 2018/12/28 03:00:00 UTC
Writing new record hs       number    218 for 2018:12:28T03:00:00 in file ww3.201812_hs.nc
Writing new record t02      number    218 for 2018:12:28T03:00:00 in file ww3.201812_t02.nc
Writing new record fp       number    218 for 2018:12:28T03:00:00 in file ww3.201812_fp.nc
Writing new record dir      number    218 for 2018:12:28T03:00:00 in file ww3.201812_dir.nc
      Files for 2018/12/28 06:00:00 UTC
Writing new record hs       number    219 for 2018:12:28T06:00:00 in file ww3.201812_hs.nc
Writing new record t02      number    219 for 2018:12:28T06:00:00 in file ww3.201812_t02.nc
Writing new record fp       number    219 for 2018:12:28T06:00:00 in file ww3.201812_fp.nc
Writing new record dir      number    219 for 2018:12:28T06:00:00 in file ww3.201812_dir.nc
      Files for 2018/12/28 09:00:00 UTC
Writing new record hs       number    220 for 2018:12:28T09:00:00 in file ww3.201812_hs.nc
Writing new record t02      number    220 for 2018:12:28T09:00:00 in file ww3.201812_t02.nc
Writing new record fp       number    220 for 2018:12:28T09:00:00 in file ww3.201812_fp.nc
Writing new record dir      number    220 for 2018:12:28T09:00:00 in file ww3.201812_dir.nc
      Files for 2018/12/28 12:00:00 UTC
Writing new record hs       number    221 for 2018:12:28T12:00:00 in file ww3.201812_hs.nc
Writing new record t02      number    221 for 2018:12:28T12:00:00 in file ww3.201812_t02.nc
Writing new record fp       number    221 for 2018:12:28T12:00:00 in file ww3.201812_fp.nc
Writing new record dir      number    221 for 2018:12:28T12:00:00 in file ww3.201812_dir.nc
      Files for 2018/12/28 15:00:00 UTC
Writing new record hs       number    222 for 2018:12:28T15:00:00 in file ww3.201812_hs.nc
Writing new record t02      number    222 for 2018:12:28T15:00:00 in file ww3.201812_t02.nc
Writing new record fp       number    222 for 2018:12:28T15:00:00 in file ww3.201812_fp.nc
Writing new record dir      number    222 for 2018:12:28T15:00:00 in file ww3.201812_dir.nc
      Files for 2018/12/28 18:00:00 UTC
Writing new record hs       number    223 for 2018:12:28T18:00:00 in file ww3.201812_hs.nc
Writing new record t02      number    223 for 2018:12:28T18:00:00 in file ww3.201812_t02.nc
Writing new record fp       number    223 for 2018:12:28T18:00:00 in file ww3.201812_fp.nc
Writing new record dir      number    223 for 2018:12:28T18:00:00 in file ww3.201812_dir.nc
      Files for 2018/12/28 21:00:00 UTC
Writing new record hs       number    224 for 2018:12:28T21:00:00 in file ww3.201812_hs.nc
Writing new record t02      number    224 for 2018:12:28T21:00:00 in file ww3.201812_t02.nc
Writing new record fp       number    224 for 2018:12:28T21:00:00 in file ww3.201812_fp.nc
Writing new record dir      number    224 for 2018:12:28T21:00:00 in file ww3.201812_dir.nc
      Files for 2018/12/29 00:00:00 UTC
Writing new record hs       number    225 for 2018:12:29T00:00:00 in file ww3.201812_hs.nc
Writing new record t02      number    225 for 2018:12:29T00:00:00 in file ww3.201812_t02.nc
Writing new record fp       number    225 for 2018:12:29T00:00:00 in file ww3.201812_fp.nc
Writing new record dir      number    225 for 2018:12:29T00:00:00 in file ww3.201812_dir.nc
      Files for 2018/12/29 03:00:00 UTC
Writing new record hs       number    226 for 2018:12:29T03:00:00 in file ww3.201812_hs.nc
Writing new record t02      number    226 for 2018:12:29T03:00:00 in file ww3.201812_t02.nc
Writing new record fp       number    226 for 2018:12:29T03:00:00 in file ww3.201812_fp.nc
Writing new record dir      number    226 for 2018:12:29T03:00:00 in file ww3.201812_dir.nc
      Files for 2018/12/29 06:00:00 UTC
Writing new record hs       number    227 for 2018:12:29T06:00:00 in file ww3.201812_hs.nc
Writing new record t02      number    227 for 2018:12:29T06:00:00 in file ww3.201812_t02.nc
Writing new record fp       number    227 for 2018:12:29T06:00:00 in file ww3.201812_fp.nc
Writing new record dir      number    227 for 2018:12:29T06:00:00 in file ww3.201812_dir.nc
      Files for 2018/12/29 09:00:00 UTC
Writing new record hs       number    228 for 2018:12:29T09:00:00 in file ww3.201812_hs.nc
Writing new record t02      number    228 for 2018:12:29T09:00:00 in file ww3.201812_t02.nc
Writing new record fp       number    228 for 2018:12:29T09:00:00 in file ww3.201812_fp.nc
Writing new record dir      number    228 for 2018:12:29T09:00:00 in file ww3.201812_dir.nc
      Files for 2018/12/29 12:00:00 UTC
Writing new record hs       number    229 for 2018:12:29T12:00:00 in file ww3.201812_hs.nc
Writing new record t02      number    229 for 2018:12:29T12:00:00 in file ww3.201812_t02.nc
Writing new record fp       number    229 for 2018:12:29T12:00:00 in file ww3.201812_fp.nc
Writing new record dir      number    229 for 2018:12:29T12:00:00 in file ww3.201812_dir.nc
      Files for 2018/12/29 15:00:00 UTC
Writing new record hs       number    230 for 2018:12:29T15:00:00 in file ww3.201812_hs.nc
Writing new record t02      number    230 for 2018:12:29T15:00:00 in file ww3.201812_t02.nc
Writing new record fp       number    230 for 2018:12:29T15:00:00 in file ww3.201812_fp.nc
Writing new record dir      number    230 for 2018:12:29T15:00:00 in file ww3.201812_dir.nc
      Files for 2018/12/29 18:00:00 UTC
Writing new record hs       number    231 for 2018:12:29T18:00:00 in file ww3.201812_hs.nc
Writing new record t02      number    231 for 2018:12:29T18:00:00 in file ww3.201812_t02.nc
Writing new record fp       number    231 for 2018:12:29T18:00:00 in file ww3.201812_fp.nc
Writing new record dir      number    231 for 2018:12:29T18:00:00 in file ww3.201812_dir.nc
      Files for 2018/12/29 21:00:00 UTC
Writing new record hs       number    232 for 2018:12:29T21:00:00 in file ww3.201812_hs.nc
Writing new record t02      number    232 for 2018:12:29T21:00:00 in file ww3.201812_t02.nc
Writing new record fp       number    232 for 2018:12:29T21:00:00 in file ww3.201812_fp.nc
Writing new record dir      number    232 for 2018:12:29T21:00:00 in file ww3.201812_dir.nc
      Files for 2018/12/30 00:00:00 UTC
Writing new record hs       number    233 for 2018:12:30T00:00:00 in file ww3.201812_hs.nc
Writing new record t02      number    233 for 2018:12:30T00:00:00 in file ww3.201812_t02.nc
Writing new record fp       number    233 for 2018:12:30T00:00:00 in file ww3.201812_fp.nc
Writing new record dir      number    233 for 2018:12:30T00:00:00 in file ww3.201812_dir.nc
      Files for 2018/12/30 03:00:00 UTC
Writing new record hs       number    234 for 2018:12:30T03:00:00 in file ww3.201812_hs.nc
Writing new record t02      number    234 for 2018:12:30T03:00:00 in file ww3.201812_t02.nc
Writing new record fp       number    234 for 2018:12:30T03:00:00 in file ww3.201812_fp.nc
Writing new record dir      number    234 for 2018:12:30T03:00:00 in file ww3.201812_dir.nc
      Files for 2018/12/30 06:00:00 UTC
Writing new record hs       number    235 for 2018:12:30T06:00:00 in file ww3.201812_hs.nc
Writing new record t02      number    235 for 2018:12:30T06:00:00 in file ww3.201812_t02.nc
Writing new record fp       number    235 for 2018:12:30T06:00:00 in file ww3.201812_fp.nc
Writing new record dir      number    235 for 2018:12:30T06:00:00 in file ww3.201812_dir.nc
      Files for 2018/12/30 09:00:00 UTC
Writing new record hs       number    236 for 2018:12:30T09:00:00 in file ww3.201812_hs.nc
Writing new record t02      number    236 for 2018:12:30T09:00:00 in file ww3.201812_t02.nc
Writing new record fp       number    236 for 2018:12:30T09:00:00 in file ww3.201812_fp.nc
Writing new record dir      number    236 for 2018:12:30T09:00:00 in file ww3.201812_dir.nc
      Files for 2018/12/30 12:00:00 UTC
Writing new record hs       number    237 for 2018:12:30T12:00:00 in file ww3.201812_hs.nc
Writing new record t02      number    237 for 2018:12:30T12:00:00 in file ww3.201812_t02.nc
Writing new record fp       number    237 for 2018:12:30T12:00:00 in file ww3.201812_fp.nc
Writing new record dir      number    237 for 2018:12:30T12:00:00 in file ww3.201812_dir.nc
      Files for 2018/12/30 15:00:00 UTC
Writing new record hs       number    238 for 2018:12:30T15:00:00 in file ww3.201812_hs.nc
Writing new record t02      number    238 for 2018:12:30T15:00:00 in file ww3.201812_t02.nc
Writing new record fp       number    238 for 2018:12:30T15:00:00 in file ww3.201812_fp.nc
Writing new record dir      number    238 for 2018:12:30T15:00:00 in file ww3.201812_dir.nc
      Files for 2018/12/30 18:00:00 UTC
Writing new record hs       number    239 for 2018:12:30T18:00:00 in file ww3.201812_hs.nc
Writing new record t02      number    239 for 2018:12:30T18:00:00 in file ww3.201812_t02.nc
Writing new record fp       number    239 for 2018:12:30T18:00:00 in file ww3.201812_fp.nc
Writing new record dir      number    239 for 2018:12:30T18:00:00 in file ww3.201812_dir.nc
      Files for 2018/12/30 21:00:00 UTC
Writing new record hs       number    240 for 2018:12:30T21:00:00 in file ww3.201812_hs.nc
Writing new record t02      number    240 for 2018:12:30T21:00:00 in file ww3.201812_t02.nc
Writing new record fp       number    240 for 2018:12:30T21:00:00 in file ww3.201812_fp.nc
Writing new record dir      number    240 for 2018:12:30T21:00:00 in file ww3.201812_dir.nc
      Files for 2018/12/31 00:00:00 UTC
Writing new record hs       number    241 for 2018:12:31T00:00:00 in file ww3.201812_hs.nc
Writing new record t02      number    241 for 2018:12:31T00:00:00 in file ww3.201812_t02.nc
Writing new record fp       number    241 for 2018:12:31T00:00:00 in file ww3.201812_fp.nc
Writing new record dir      number    241 for 2018:12:31T00:00:00 in file ww3.201812_dir.nc
      Files for 2018/12/31 03:00:00 UTC
Writing new record hs       number    242 for 2018:12:31T03:00:00 in file ww3.201812_hs.nc
Writing new record t02      number    242 for 2018:12:31T03:00:00 in file ww3.201812_t02.nc
Writing new record fp       number    242 for 2018:12:31T03:00:00 in file ww3.201812_fp.nc
Writing new record dir      number    242 for 2018:12:31T03:00:00 in file ww3.201812_dir.nc
      Files for 2018/12/31 06:00:00 UTC
Writing new record hs       number    243 for 2018:12:31T06:00:00 in file ww3.201812_hs.nc
Writing new record t02      number    243 for 2018:12:31T06:00:00 in file ww3.201812_t02.nc
Writing new record fp       number    243 for 2018:12:31T06:00:00 in file ww3.201812_fp.nc
Writing new record dir      number    243 for 2018:12:31T06:00:00 in file ww3.201812_dir.nc
      Files for 2018/12/31 09:00:00 UTC
Writing new record hs       number    244 for 2018:12:31T09:00:00 in file ww3.201812_hs.nc
Writing new record t02      number    244 for 2018:12:31T09:00:00 in file ww3.201812_t02.nc
Writing new record fp       number    244 for 2018:12:31T09:00:00 in file ww3.201812_fp.nc
Writing new record dir      number    244 for 2018:12:31T09:00:00 in file ww3.201812_dir.nc
      Files for 2018/12/31 12:00:00 UTC
Writing new record hs       number    245 for 2018:12:31T12:00:00 in file ww3.201812_hs.nc
Writing new record t02      number    245 for 2018:12:31T12:00:00 in file ww3.201812_t02.nc
Writing new record fp       number    245 for 2018:12:31T12:00:00 in file ww3.201812_fp.nc
Writing new record dir      number    245 for 2018:12:31T12:00:00 in file ww3.201812_dir.nc
      Files for 2018/12/31 15:00:00 UTC
Writing new record hs       number    246 for 2018:12:31T15:00:00 in file ww3.201812_hs.nc
Writing new record t02      number    246 for 2018:12:31T15:00:00 in file ww3.201812_t02.nc
Writing new record fp       number    246 for 2018:12:31T15:00:00 in file ww3.201812_fp.nc
Writing new record dir      number    246 for 2018:12:31T15:00:00 in file ww3.201812_dir.nc
      Files for 2018/12/31 18:00:00 UTC
Writing new record hs       number    247 for 2018:12:31T18:00:00 in file ww3.201812_hs.nc
Writing new record t02      number    247 for 2018:12:31T18:00:00 in file ww3.201812_t02.nc
Writing new record fp       number    247 for 2018:12:31T18:00:00 in file ww3.201812_fp.nc
Writing new record dir      number    247 for 2018:12:31T18:00:00 in file ww3.201812_dir.nc
      Files for 2018/12/31 21:00:00 UTC
Writing new record hs       number    248 for 2018:12:31T21:00:00 in file ww3.201812_hs.nc
Writing new record t02      number    248 for 2018:12:31T21:00:00 in file ww3.201812_t02.nc
Writing new record fp       number    248 for 2018:12:31T21:00:00 in file ww3.201812_fp.nc
Writing new record dir      number    248 for 2018:12:31T21:00:00 in file ww3.201812_dir.nc

      End of file reached 


  End of program 
 =========================================
         WAVEWATCH III Field output 

